W005_1
                    3D
 Schrodinger Suite 2021-4.
116119  0  0  1  0            999 V2000
    3.4203   -1.3797    5.8343 C   0  0  3  0  0  0
    4.7739   -0.9326    5.9564 C   0  0  3  0  0  0
    5.6310   -1.9842    5.5011 C   0  0  3  0  0  0
    4.8067   -3.0828    5.1012 C   0  0  3  0  0  0
    3.4390   -2.7081    5.3048 C   0  5  3  0  0  0
    5.0920    0.0461    6.2876 H   0  0  0  0  0  0
    6.7088   -1.9392    5.4301 H   0  0  0  0  0  0
    5.1587   -4.0171    4.6865 H   0  0  0  0  0  0
    2.5713   -3.3107    5.0769 H   0  0  0  0  0  0
    2.5403   -0.7990    6.0705 H   0  0  0  0  0  0
    4.3540   -1.3942    3.9970 Fe  0  2  0  0  0  0
    5.2617    0.0488    2.8694 C   0  0  1  0  0  0
    5.4196   -1.2352    2.2537 C   0  0  2  0  0  0
    4.1216   -1.7751    1.9644 C   0  0  2  0  0  0
    3.1771   -0.8008    2.4205 C   0  0  2  0  0  0
    3.8614    0.3169    2.9920 C   0  5  1  0  0  0
    6.0612    0.6812    3.2300 H   0  0  0  0  0  0
    3.4227    1.1941    3.4474 H   0  0  0  0  0  0
    1.6745   -0.8924    2.2323 C   0  0  2  0  0  0
    1.5217   -0.3495    0.4701 P   0  0  0  0  0  0
    1.3499   -1.9216    2.3771 H   0  0  0  0  0  0
    0.9187    0.0146    3.2173 C   0  0  0  0  0  0
   -0.1554   -0.1536    3.1799 H   0  0  0  0  0  0
    1.2136   -0.1811    4.2468 H   0  0  0  0  0  0
    1.0960    1.0720    3.0148 H   0  0  0  0  0  0
   -2.3135    2.3705    0.0024 C   0  0  0  0  0  0
   -2.3990    1.1391    0.6808 C   0  0  0  0  0  0
   -1.2432    0.3440    0.8182 C   0  0  0  0  0  0
    0.0065    0.7644    0.3125 C   0  0  0  0  0  0
    0.0588    1.9849   -0.3953 C   0  0  0  0  0  0
   -1.0868    2.7978   -0.5419 C   0  0  0  0  0  0
   -3.1916    2.9875   -0.1213 H   0  0  0  0  0  0
   -3.7179    0.6437    1.2527 C   0  0  0  0  0  0
   -1.3337   -0.6127    1.3117 H   0  0  0  0  0  0
    0.9806    2.3059   -0.8547 H   0  0  0  0  0  0
   -1.0205    4.1129   -1.3042 C   0  0  0  0  0  0
   -0.5975   -3.6698   -2.1228 C   0  0  0  0  0  0
   -0.0017   -4.0392   -0.9018 C   0  0  0  0  0  0
    0.6704   -3.0638   -0.1324 C   0  0  0  0  0  0
    0.7589   -1.7231   -0.5676 C   0  0  0  0  0  0
    0.1775   -1.3867   -1.8106 C   0  0  0  0  0  0
   -0.5125   -2.3417   -2.5840 C   0  0  0  0  0  0
   -1.1256   -4.4133   -2.7017 H   0  0  0  0  0  0
   -0.1001   -5.4820   -0.4290 C   0  0  0  0  0  0
    1.1137   -3.3674    0.8012 H   0  0  0  0  0  0
    0.2241   -0.3708   -2.1767 H   0  0  0  0  0  0
   -1.1863   -1.9179   -3.8801 C   0  0  0  0  0  0
   -1.5210   -2.9731   -4.6234 F   0  0  0  0  0  0
   -2.2905   -1.2342   -3.5844 F   0  0  0  0  0  0
   -0.3732   -1.1353   -4.5872 F   0  0  0  0  0  0
    0.7232   -6.2374   -1.1540 F   0  0  0  0  0  0
    0.2217   -5.6015    0.8597 F   0  0  0  0  0  0
   -1.3456   -5.9259   -0.5935 F   0  0  0  0  0  0
   -4.6550    1.5912    1.2283 F   0  0  0  0  0  0
   -4.1382   -0.3998    0.5395 F   0  0  0  0  0  0
   -3.5363    0.2555    2.5151 F   0  0  0  0  0  0
   -1.7325    5.0438   -0.6693 F   0  0  0  0  0  0
    0.2342    4.5468   -1.4231 F   0  0  0  0  0  0
   -1.5318    3.9348   -2.5209 F   0  0  0  0  0  0
    4.3778   -1.5441   -1.1953 P   0  0  0  0  0  0
    9.0233   -2.3061   -1.6388 C   0  0  0  0  0  0
    8.1034   -3.0006   -2.4542 C   0  0  0  0  0  0
    6.7216   -2.7628   -2.3112 C   0  0  0  0  0  0
    6.2325   -1.8245   -1.3763 C   0  0  0  0  0  0
    7.1649   -1.1302   -0.5796 C   0  0  0  0  0  0
    8.5501   -1.3547   -0.7094 C   0  0  0  0  0  0
    6.0264   -3.3059   -2.9338 H   0  0  0  0  0  0
    6.8152   -0.4050    0.1380 H   0  0  0  0  0  0
    5.5465    1.6114   -1.0999 Cl  0  0  0  0  0  0
    3.0678    2.6141    0.6970 Cl  0  0  0  0  0  0
    6.3611   -1.7274    2.0515 H   0  0  0  0  0  0
    3.6414   -5.5173   -0.0787 C   0  0  0  0  0  0
    3.4212   -5.4372    1.3045 C   0  0  0  0  0  0
    3.5505   -4.2012    1.9601 C   0  0  0  0  0  0
    3.8798   -3.0302    1.2425 C   0  0  0  0  0  0
    4.0283   -3.0934   -0.1686 C   0  0  0  0  0  0
    3.9502   -4.3535   -0.8028 C   0  0  0  0  0  0
    3.5707   -6.4695   -0.5857 H   0  0  0  0  0  0
    3.1750   -6.3288    1.8640 H   0  0  0  0  0  0
    3.4064   -4.1855    3.0270 H   0  0  0  0  0  0
    4.1373   -4.4405   -1.8620 H   0  0  0  0  0  0
    3.1762   -2.0119   -5.7305 C   0  0  0  0  0  0
    4.0910   -1.0207   -5.3107 C   0  0  0  0  0  0
    4.4213   -0.9096   -3.9460 C   0  0  0  0  0  0
    3.8379   -1.7559   -2.9814 C   0  0  0  0  0  0
    2.8825   -2.7034   -3.4054 C   0  0  0  0  0  0
    2.5631   -2.8466   -4.7717 C   0  0  0  0  0  0
    5.1443   -0.1696   -3.6309 H   0  0  0  0  0  0
    2.3959   -3.3365   -2.6814 H   0  0  0  0  0  0
    3.6351    0.5615   -0.2704 Pd  0  0  0  0  0  0
    8.5871   -3.9986   -3.4884 C   0  0  0  0  0  0
    7.8548   -4.1219   -4.2864 H   0  0  0  0  0  0
    9.5201   -3.6632   -3.9422 H   0  0  0  0  0  0
    8.7580   -4.9697   -3.0246 H   0  0  0  0  0  0
    9.5189   -0.5630    0.1474 C   0  0  0  0  0  0
   10.4167   -0.3119   -0.4182 H   0  0  0  0  0  0
    9.0686    0.3700    0.4871 H   0  0  0  0  0  0
    9.8120   -1.1435    1.0215 H   0  0  0  0  0  0
   10.3684   -2.5375   -1.7639 O   0  0  0  0  0  0
   10.8388   -3.5737   -0.9171 C   0  0  0  0  0  0
   10.6708   -3.3358    0.1338 H   0  0  0  0  0  0
   10.3496   -4.5227   -1.1390 H   0  0  0  0  0  0
   11.9105   -3.7065   -1.0637 H   0  0  0  0  0  0
    4.7281   -0.0709   -6.3071 C   0  0  0  0  0  0
    4.0651    0.1131   -7.1530 H   0  0  0  0  0  0
    5.6623   -0.4878   -6.6824 H   0  0  0  0  0  0
    4.9455    0.8908   -5.8418 H   0  0  0  0  0  0
    1.5711   -3.9038   -5.2158 C   0  0  0  0  0  0
    0.8037   -3.4575   -5.8489 H   0  0  0  0  0  0
    2.0788   -4.6759   -5.7933 H   0  0  0  0  0  0
    1.0819   -4.3829   -4.3691 H   0  0  0  0  0  0
    2.8585   -2.1576   -7.0558 O   0  0  0  0  0  0
    3.7882   -2.9512   -7.7764 C   0  0  0  0  0  0
    3.4430   -3.0742   -8.8028 H   0  0  0  0  0  0
    4.7740   -2.4875   -7.8089 H   0  0  0  0  0  0
    3.8886   -3.9437   -7.3354 H   0  0  0  0  0  0
  1  5  1  0  0  0
  1  2  2  0  0  0
  1 10  1  0  0  0
  2  3  1  0  0  0
  2  6  1  0  0  0
  3  4  2  0  0  0
  3  7  1  0  0  0
  4  5  1  0  0  0
  4  8  1  0  0  0
  5  9  1  0  0  0
 12 16  1  0  0  0
 12 13  2  0  0  0
 12 17  1  0  0  0
 13 71  1  0  0  0
 13 14  1  0  0  0
 14 75  1  0  0  0
 14 15  2  0  0  0
 15 19  1  0  0  0
 15 16  1  0  0  0
 16 18  1  0  0  0
 19 21  1  0  0  0
 19 22  1  0  0  0
 19 20  1  0  0  0
 20 40  1  0  0  0
 20 29  1  0  0  0
 22 23  1  0  0  0
 22 24  1  0  0  0
 22 25  1  0  0  0
 26 27  1  0  0  0
 26 31  2  0  0  0
 26 32  1  0  0  0
 27 28  2  0  0  0
 27 33  1  0  0  0
 28 34  1  0  0  0
 28 29  1  0  0  0
 29 30  2  0  0  0
 30 31  1  0  0  0
 30 35  1  0  0  0
 31 36  1  0  0  0
 33 55  1  0  0  0
 33 56  1  0  0  0
 33 54  1  0  0  0
 36 59  1  0  0  0
 36 57  1  0  0  0
 36 58  1  0  0  0
 37 43  1  0  0  0
 37 38  1  0  0  0
 37 42  2  0  0  0
 38 44  1  0  0  0
 38 39  2  0  0  0
 39 45  1  0  0  0
 39 40  1  0  0  0
 40 41  2  0  0  0
 41 42  1  0  0  0
 41 46  1  0  0  0
 42 47  1  0  0  0
 44 51  1  0  0  0
 44 53  1  0  0  0
 44 52  1  0  0  0
 47 49  1  0  0  0
 47 48  1  0  0  0
 47 50  1  0  0  0
 60 76  1  0  0  0
 60 64  1  0  0  0
 60 85  1  0  0  0
 61 66  1  0  0  0
 61 62  2  0  0  0
 61 99  1  0  0  0
 62 63  1  0  0  0
 62 91  1  0  0  0
 63 64  2  0  0  0
 63 67  1  0  0  0
 64 65  1  0  0  0
 65 68  1  0  0  0
 65 66  2  0  0  0
 66 95  1  0  0  0
 69 90  1  0  0  0
 70 90  1  0  0  0
 72 78  1  0  0  0
 72 73  1  0  0  0
 72 77  2  0  0  0
 73 79  1  0  0  0
 73 74  2  0  0  0
 74 80  1  0  0  0
 74 75  1  0  0  0
 75 76  2  0  0  0
 76 77  1  0  0  0
 77 81  1  0  0  0
 82 87  1  0  0  0
 82 83  2  0  0  0
 82112  1  0  0  0
 83 84  1  0  0  0
 83104  1  0  0  0
 84 85  2  0  0  0
 84 88  1  0  0  0
 85 86  1  0  0  0
 86 89  1  0  0  0
 86 87  2  0  0  0
 87108  1  0  0  0
 91 93  1  0  0  0
 91 92  1  0  0  0
 91 94  1  0  0  0
 95 98  1  0  0  0
 95 96  1  0  0  0
 95 97  1  0  0  0
 99100  1  0  0  0
100101  1  0  0  0
100102  1  0  0  0
100103  1  0  0  0
104106  1  0  0  0
104105  1  0  0  0
104107  1  0  0  0
108111  1  0  0  0
108109  1  0  0  0
108110  1  0  0  0
112113  1  0  0  0
113116  1  0  0  0
113115  1  0  0  0
113114  1  0  0  0
M  CHG  3   5  -1  11   2  16  -1
M  END
> <s_m_entry_id>
62

> <s_m_entry_name>
W005-1_1.1

> <program>
Gaussian 16, Revision B.01

> <s_m_Source_Path>
/uufs/chpc.utah.edu/common/home/u6034117/conf_cluster_6

> <s_m_Source_File>
conf_cluster_6_ligand1_representatives.maegz

> <i_m_Source_File_Index>
3

> <r_mmod_Potential_Energy-OPLS-2005>
464.263488769531

> <b_mmod_Minimization_Converged-OPLS-2005>
1

> <r_mmod_RMS_Derivative-OPLS-2005>
0.00082802667748183

> <i_mmod_Times_Found-OPLS-2005>
11

> <r_mmod_Relative_Potential_Energy-OPLS-2005>
9.59725952148438

> <i_mmod_Conformation-OPLS-2005>
15

> <i_mmod_Serial_Number-OPLS-2005>
1

> <s_m_job_name>
mmod_csearch_6

> <r_canvas_Distance_To_Centroid>
0.0337007474154234

> <b_canvas_Is_Nearest_To_Centroid>
1

> <b_canvas_Is_Farthest_From_Centroid>
0

> <r_canvas_Max_Distance_From_Centroid>
0.0346364174038172

> <r_canvas_Average_Distance_From_Centroid>
0.0341798830777407

> <r_canvas_Cluster_Variance>
0.00116837472679612

> <i_canvas_Canvas_Cluster_Index>
3

> <i_canvas_Canvas_Cluster_Size>
4

> <s_m_subgroup_title>
conf_cluster_6_ligand1_representatives

> <s_m_subgroupid>
conf_cluster_6_ligand1_representatives

> <b_m_subgroup_collapsed>
0

$$$$
