SS_Et_DuPhos
                    3D
 Structure written by MMmdl.
 63 64  0  0  1  0            999 V2000
   -1.1190   -3.9214    1.1523 Cl  0  0  0  0  0  0
   -1.6122   -0.6921    0.1207 P   0  0  1  0  0  0
    1.5233   -0.1070    0.2841 P   0  0  2  0  0  0
   -0.9962    1.0220   -0.3493 C   0  0  0  0  0  0
    0.3964    1.2766   -0.2828 C   0  0  0  0  0  0
   -2.9518   -0.7006    1.3791 C   0  0  2  0  0  0
   -2.6941   -1.4103    2.1668 H   0  0  0  0  0  0
   -2.5839   -1.1391   -1.3715 C   0  0  2  0  0  0
   -2.3746   -0.4489   -2.1902 H   0  0  0  0  0  0
    2.3767    0.6589    1.7147 C   0  0  2  0  0  0
    2.4042    1.7380    1.5618 H   0  0  0  0  0  0
    2.9833   -0.3523   -0.8021 C   0  0  2  0  0  0
    3.1381   -1.4285   -0.8891 H   0  0  0  0  0  0
   -4.1576   -1.2579    0.6031 C   0  0  0  0  0  0
   -4.1710   -2.3422    0.7253 H   0  0  0  0  0  0
   -5.1043   -0.8976    1.0068 H   0  0  0  0  0  0
   -4.0353   -0.9472   -0.9000 C   0  0  0  0  0  0
   -4.3261    0.0904   -1.0617 H   0  0  0  0  0  0
   -4.7331   -1.5474   -1.4850 H   0  0  0  0  0  0
    3.8103    0.1511    1.5284 C   0  0  0  0  0  0
    4.5177    0.7336    2.1194 H   0  0  0  0  0  0
    3.8862   -0.8822    1.8699 H   0  0  0  0  0  0
    4.1491    0.2191    0.0248 C   0  0  0  0  0  0
    5.0801   -0.3047   -0.1945 H   0  0  0  0  0  0
    4.3081    1.2634   -0.2473 H   0  0  0  0  0  0
   -3.2302    0.6586    2.0509 C   0  0  0  0  0  0
   -3.5336    1.3949    1.3087 H   0  0  0  0  0  0
   -4.0872    0.5465    2.7159 H   0  0  0  0  0  0
   -2.3110   -2.5724   -1.8632 C   0  0  0  0  0  0
   -2.9909   -2.7981   -2.6856 H   0  0  0  0  0  0
   -2.5583   -3.2872   -1.0798 H   0  0  0  0  0  0
    1.7542    0.4306    3.1083 C   0  0  0  0  0  0
    0.9048    1.1044    3.2178 H   0  0  0  0  0  0
    2.4712    0.7496    3.8656 H   0  0  0  0  0  0
    2.8664    0.2189   -2.2282 C   0  0  0  0  0  0
    2.7712    1.3031   -2.1959 H   0  0  0  0  0  0
    3.7982    0.0225   -2.7596 H   0  0  0  0  0  0
   -2.0580    1.2080    2.8763 C   0  0  0  0  0  0
   -2.3470    2.1225    3.3944 H   0  0  0  0  0  0
   -1.1995    1.4513    2.2538 H   0  0  0  0  0  0
   -1.7324    0.4894    3.6287 H   0  0  0  0  0  0
   -0.8751   -2.8103   -2.3499 C   0  0  0  0  0  0
   -0.1357   -2.6187   -1.5756 H   0  0  0  0  0  0
   -0.7454   -3.8427   -2.6755 H   0  0  0  0  0  0
   -0.6437   -2.1673   -3.1991 H   0  0  0  0  0  0
    1.2798   -0.9888    3.4393 C   0  0  0  0  0  0
    2.0859   -1.7136    3.3335 H   0  0  0  0  0  0
    0.4435   -1.2925    2.8142 H   0  0  0  0  0  0
    0.9345   -1.0411    4.4721 H   0  0  0  0  0  0
    1.7060   -0.3659   -3.0448 C   0  0  0  0  0  0
    1.7892   -1.4500   -3.1225 H   0  0  0  0  0  0
    0.7379   -0.1335   -2.6025 H   0  0  0  0  0  0
    1.7038    0.0390   -4.0568 H   0  0  0  0  0  0
   -1.8652    2.0434   -0.7872 C   0  0  0  0  0  0
   -2.9254    1.8612   -0.8593 H   0  0  0  0  0  0
   -1.3638    3.3120   -1.1325 C   0  0  0  0  0  0
   -2.0386    4.0883   -1.4623 H   0  0  0  0  0  0
    0.0163    3.5683   -1.0463 C   0  0  0  0  0  0
    0.4037    4.5421   -1.3081 H   0  0  0  0  0  0
    0.8919    2.5524   -0.6220 C   0  0  0  0  0  0
    1.9504    2.7556   -0.5602 H   0  0  0  0  0  0
    2.1681   -3.3573    1.0888 Cl  0  0  0  0  0  0
    0.2499   -2.0954    0.6803 Pd  0  0  0  0  0  0
  1 63  1  0  0  0
  2  4  1  0  0  0
  2  6  1  0  0  0
  2  8  1  0  0  0
  3  5  1  0  0  0
  3 10  1  0  0  0
  3 12  1  0  0  0
  4  5  1  0  0  0
  4 54  2  0  0  0
  5 60  2  0  0  0
  6  7  1  0  0  0
  6 26  1  0  0  0
  6 14  1  0  0  0
  8  9  1  0  0  0
  8 17  1  0  0  0
  8 29  1  0  0  0
 10 11  1  0  0  0
 10 32  1  0  0  0
 10 20  1  0  0  0
 12 13  1  0  0  0
 12 23  1  0  0  0
 12 35  1  0  0  0
 14 15  1  0  0  0
 14 16  1  0  0  0
 14 17  1  0  0  0
 17 19  1  0  0  0
 17 18  1  0  0  0
 20 21  1  0  0  0
 20 22  1  0  0  0
 20 23  1  0  0  0
 23 25  1  0  0  0
 23 24  1  0  0  0
 26 27  1  0  0  0
 26 38  1  0  0  0
 26 28  1  0  0  0
 29 31  1  0  0  0
 29 30  1  0  0  0
 29 42  1  0  0  0
 32 46  1  0  0  0
 32 33  1  0  0  0
 32 34  1  0  0  0
 35 36  1  0  0  0
 35 37  1  0  0  0
 35 50  1  0  0  0
 38 41  1  0  0  0
 38 40  1  0  0  0
 38 39  1  0  0  0
 42 43  1  0  0  0
 42 44  1  0  0  0
 42 45  1  0  0  0
 46 48  1  0  0  0
 46 49  1  0  0  0
 46 47  1  0  0  0
 50 51  1  0  0  0
 50 52  1  0  0  0
 50 53  1  0  0  0
 54 56  1  0  0  0
 54 55  1  0  0  0
 56 58  2  0  0  0
 56 57  1  0  0  0
 58 59  1  0  0  0
 58 60  1  0  0  0
 60 61  1  0  0  0
 62 63  1  0  0  0
M  END
> <s_m_entry_id>
388

> <s_m_entry_name>
SS_Et_DuPhos_6.1

> <program>
Gaussian 09, Revision D.01

> <chiral flag>
1

> <version>
0

> <s_m_Source_Path>
/home/sigmangrp/Documents/Schrodinger/conf_cluster_735

> <s_m_Source_File>
conf_cluster_735_ligand1_representatives.maegz

> <i_m_Source_File_Index>
3

> <r_mmod_Potential_Energy-OPLS-2005>
32.8832740783691

> <b_mmod_Minimization_Converged-OPLS-2005>
1

> <r_mmod_RMS_Derivative-OPLS-2005>
0.000818050466477871

> <i_mmod_Times_Found-OPLS-2005>
95

> <r_mmod_Relative_Potential_Energy-OPLS-2005>
7.57929992675781

> <i_mmod_Conformation-OPLS-2005>
6

> <i_mmod_Serial_Number-OPLS-2005>
8

> <s_m_job_name>
mmod_csearch_2421

> <r_canvas_Distance_To_Centroid>
0.0212396439164877

> <b_canvas_Is_Nearest_To_Centroid>
1

> <b_canvas_Is_Farthest_From_Centroid>
1

> <r_canvas_Max_Distance_From_Centroid>
0.0212396439164877

> <r_canvas_Average_Distance_From_Centroid>
0.0212396439164877

> <r_canvas_Cluster_Variance>
0.000451122473699193

> <i_canvas_Canvas_Cluster_Index>
3

> <i_canvas_Canvas_Cluster_Size>
2

> <s_m_subgroup_title>
conf_cluster_735_ligand1_representatives

> <s_m_subgroupid>
conf_cluster_735_ligand1_representatives

> <b_m_subgroup_collapsed>
0

$$$$
