M003_1
                    3D
 Structure written by MMmdl.
134138  0  0  1  0            999 V2000
    0.0834   -1.7355    1.7435 Fe  0  2  0  0  0  0
    1.8419   -0.1026   -0.7051 P   0  0  0  0  0  0
   -1.7534    0.1249   -0.5377 P   0  0  0  0  0  0
    1.6050   -1.5445    0.4544 C   0  0  2  0  0  0
    0.7586   -2.6338    0.0520 C   0  5  1  0  0  0
    0.7301   -3.6129    1.0913 C   0  0  1  0  0  0
    1.5354   -3.1485    2.1715 C   0  0  1  0  0  0
    2.1143   -1.9120    1.7518 C   0  0  1  0  0  0
   -1.4504   -0.5343    1.2040 C   0  0  1  0  0  0
   -1.9582   -1.6625    1.9564 C   0  0  1  0  0  0
   -1.3422   -1.7099    3.2445 C   0  0  2  0  0  0
   -0.5128   -0.5613    3.3459 C   0  0  2  0  0  0
   -0.5638    0.1469    2.1091 C   0  5  1  0  0  0
    3.4209   -0.6504   -1.5750 C   0  0  0  0  0  0
    3.7955   -2.0113   -1.6405 C   0  0  0  0  0  0
    4.9701   -2.4178   -2.3078 C   0  0  0  0  0  0
    5.7897   -1.4490   -2.9201 C   0  0  0  0  0  0
    5.4332   -0.0873   -2.8785 C   0  0  0  0  0  0
    4.2480    0.2977   -2.2176 C   0  0  0  0  0  0
    2.3784    1.4692    0.1742 C   0  0  0  0  0  0
    3.7108    1.6901    0.5896 C   0  0  0  0  0  0
    4.0995    2.8953    1.2108 C   0  0  0  0  0  0
    3.1404    3.9065    1.4206 C   0  0  0  0  0  0
    1.8100    3.7184    0.9946 C   0  0  0  0  0  0
    1.4462    2.5094    0.3656 C   0  0  0  0  0  0
   -2.3536    1.8527   -0.1077 C   0  0  0  0  0  0
   -2.2504    2.8843   -1.0644 C   0  0  0  0  0  0
   -2.6853    4.1962   -0.7771 C   0  0  0  0  0  0
   -3.2459    4.4801    0.4839 C   0  0  0  0  0  0
   -3.3676    3.4644    1.4531 C   0  0  0  0  0  0
   -2.9162    2.1630    1.1517 C   0  0  0  0  0  0
   -3.3459   -0.6434   -1.1565 C   0  0  0  0  0  0
   -4.6150   -0.2159   -0.7080 C   0  0  0  0  0  0
   -5.7994   -0.8182   -1.1824 C   0  0  0  0  0  0
   -5.7153   -1.8692   -2.1164 C   0  0  0  0  0  0
   -4.4609   -2.3117   -2.5790 C   0  0  0  0  0  0
   -3.2876   -1.6900   -2.1004 C   0  0  0  0  0  0
    0.2041   -2.7047   -0.8722 H   0  0  0  0  0  0
   -0.0070    1.0456    1.9089 H   0  0  0  0  0  0
    3.1890   -2.7750   -1.1753 H   0  0  0  0  0  0
    6.6939   -1.7490   -3.4294 H   0  0  0  0  0  0
    3.9719    1.3424   -2.2167 H   0  0  0  0  0  0
    4.4643    0.9292    0.4405 H   0  0  0  0  0  0
    3.4282    4.8275    1.9068 H   0  0  0  0  0  0
    0.4251    2.3976    0.0354 H   0  0  0  0  0  0
   -1.8402    2.6835   -2.0426 H   0  0  0  0  0  0
   -3.5833    5.4820    0.7062 H   0  0  0  0  0  0
   -3.0198    1.4016    1.9125 H   0  0  0  0  0  0
   -4.7028    0.5741    0.0213 H   0  0  0  0  0  0
   -6.6179   -2.3400   -2.4787 H   0  0  0  0  0  0
   -2.3316   -2.0294   -2.4720 H   0  0  0  0  0  0
    1.5070    0.3621   -3.9926 Cl  0  0  0  0  0  0
   -1.6799    0.5810   -3.8178 Cl  0  0  0  0  0  0
   -0.0093    0.2199   -2.2282 Pd  0  0  0  0  0  0
    3.1777   -1.1797    2.5460 C   0  0  2  0  0  0
    0.0725   -0.3037    4.2117 H   0  0  0  0  0  0
   -1.5039   -2.4555    4.0092 H   0  0  0  0  0  0
   -3.0602   -2.6251    1.5597 C   0  0  2  0  0  0
    3.5349   -0.3588    1.9390 H   0  0  0  0  0  0
    4.3354   -2.0477    2.7821 N   0  0  0  0  0  0
    4.8886   -2.6061    1.5485 C   0  0  0  0  0  0
    5.4260   -1.3228    3.4383 C   0  0  0  0  0  0
    5.7603   -3.2269    1.7607 H   0  0  0  0  0  0
    4.1697   -3.2526    1.0440 H   0  0  0  0  0  0
    5.1929   -1.8223    0.8544 H   0  0  0  0  0  0
    6.2809   -1.9799    3.6045 H   0  0  0  0  0  0
    5.7643   -0.4751    2.8404 H   0  0  0  0  0  0
    5.1329   -0.9456    4.4186 H   0  0  0  0  0  0
    1.8016    0.5186    6.3083 C   0  0  0  0  0  0
    1.9830   -0.8727    6.1907 C   0  0  0  0  0  0
    2.4093   -1.4258    4.9675 C   0  0  0  0  0  0
    2.6508   -0.5937    3.8502 C   0  0  0  0  0  0
    2.4789    0.8020    3.9819 C   0  0  0  0  0  0
    2.0527    1.3565    5.2049 C   0  0  0  0  0  0
    1.4764    0.9435    7.2474 H   0  0  0  0  0  0
    1.8049   -1.5149    7.0413 H   0  0  0  0  0  0
    2.5819   -2.4900    4.8917 H   0  0  0  0  0  0
    2.6811    1.4583    3.1528 H   0  0  0  0  0  0
    1.9205    2.4248    5.3011 H   0  0  0  0  0  0
   -4.1339   -2.6151    2.5589 N   0  0  0  0  0  0
   -3.5061   -2.3020    0.6273 H   0  0  0  0  0  0
   -5.2613   -3.4525    2.1449 C   0  0  0  0  0  0
   -4.6736   -1.2782    2.8144 C   0  0  0  0  0  0
   -5.6922   -3.1100    1.2030 H   0  0  0  0  0  0
   -4.9688   -4.4957    2.0212 H   0  0  0  0  0  0
   -6.0492   -3.4385    2.8994 H   0  0  0  0  0  0
   -5.0976   -0.8326    1.9161 H   0  0  0  0  0  0
   -5.4610   -1.3209    3.5682 H   0  0  0  0  0  0
   -3.9135   -0.6004    3.2044 H   0  0  0  0  0  0
   -1.6345   -6.6864    0.9013 C   0  0  0  0  0  0
   -1.9452   -5.8595   -0.1951 C   0  0  0  0  0  0
   -2.3871   -4.5395    0.0206 C   0  0  0  0  0  0
   -2.5193   -4.0331    1.3319 C   0  0  0  0  0  0
   -2.2123   -4.8737    2.4269 C   0  0  0  0  0  0
   -1.7701   -6.1939    2.2132 C   0  0  0  0  0  0
   -1.2983   -7.7003    0.7364 H   0  0  0  0  0  0
   -2.6404   -3.9312   -0.8305 H   0  0  0  0  0  0
   -2.3474   -4.5120    3.4364 H   0  0  0  0  0  0
   -2.5628    5.2869   -1.8308 C   0  0  0  0  0  0
   -3.6387    5.2536   -2.6144 F   0  0  0  0  0  0
   -2.4740    6.4908   -1.2662 F   0  0  0  0  0  0
   -1.4773    5.0869   -2.5793 F   0  0  0  0  0  0
   -3.9706    3.7540    2.8194 C   0  0  0  0  0  0
   -4.8088    2.7743    3.1588 F   0  0  0  0  0  0
   -2.9960    3.8223    3.7243 F   0  0  0  0  0  0
   -4.6429    4.9052    2.8208 F   0  0  0  0  0  0
   -7.1534   -0.3587   -0.6637 C   0  0  0  0  0  0
   -7.1206    0.9347   -0.3428 F   0  0  0  0  0  0
   -8.1003   -0.5452   -1.5826 F   0  0  0  0  0  0
   -7.4586   -1.0660    0.4227 F   0  0  0  0  0  0
   -4.3711   -3.4478   -3.5868 C   0  0  0  0  0  0
   -5.3782   -4.3040   -3.4187 F   0  0  0  0  0  0
   -4.4252   -2.9473   -4.8188 F   0  0  0  0  0  0
   -3.2240   -4.1120   -3.4381 F   0  0  0  0  0  0
    5.3513   -3.8903   -2.3417 C   0  0  0  0  0  0
    6.2175   -4.1433   -3.3230 F   0  0  0  0  0  0
    5.9108   -4.2187   -1.1785 F   0  0  0  0  0  0
    4.2677   -4.6430   -2.5297 F   0  0  0  0  0  0
    6.3105    0.9568   -3.5530 C   0  0  0  0  0  0
    5.9345    1.0905   -4.8231 F   0  0  0  0  0  0
    6.1925    2.1353   -2.9401 F   0  0  0  0  0  0
    7.5908    0.5880   -3.5159 F   0  0  0  0  0  0
    5.5377    3.0694    1.6728 C   0  0  0  0  0  0
    5.8214    4.3479    1.9184 F   0  0  0  0  0  0
    5.7142    2.3621    2.7873 F   0  0  0  0  0  0
    6.3714    2.6154    0.7377 F   0  0  0  0  0  0
    0.7528    4.7910    1.2014 C   0  0  0  0  0  0
    1.2416    5.8634    1.8221 F   0  0  0  0  0  0
    0.2668    5.1568    0.0171 F   0  0  0  0  0  0
   -0.2401    4.2834    1.9296 F   0  0  0  0  0  0
   -1.8510   -6.2418   -1.2018 H   0  0  0  0  0  0
   -1.5446   -6.8312    3.0563 H   0  0  0  0  0  0
    0.1633   -4.5298    1.0898 H   0  0  0  0  0  0
    1.6869   -3.6412    3.1207 H   0  0  0  0  0  0
  2 20  1  0  0  0
  2  4  1  0  0  0
  2 14  1  0  0  0
  3 26  1  0  0  0
  3  9  1  0  0  0
  3 32  1  0  0  0
  4  5  1  0  0  0
  4  8  2  0  0  0
  5  6  1  0  0  0
  5 38  1  0  0  0
  6133  1  0  0  0
  6  7  2  0  0  0
  7134  1  0  0  0
  7  8  1  0  0  0
  8 55  1  0  0  0
  9 10  2  0  0  0
  9 13  1  0  0  0
 10 58  1  0  0  0
 10 11  1  0  0  0
 11 12  2  0  0  0
 11 57  1  0  0  0
 12 56  1  0  0  0
 12 13  1  0  0  0
 13 39  1  0  0  0
 14 15  2  0  0  0
 14 19  1  0  0  0
 15 40  1  0  0  0
 15 16  1  0  0  0
 16 17  2  0  0  0
 16115  1  0  0  0
 17 18  1  0  0  0
 17 41  1  0  0  0
 18 19  2  0  0  0
 18119  1  0  0  0
 19 42  1  0  0  0
 20 21  1  0  0  0
 20 25  2  0  0  0
 21 43  1  0  0  0
 21 22  2  0  0  0
 22 23  1  0  0  0
 22123  1  0  0  0
 23 44  1  0  0  0
 23 24  2  0  0  0
 24127  1  0  0  0
 24 25  1  0  0  0
 25 45  1  0  0  0
 26 27  1  0  0  0
 26 31  2  0  0  0
 27 28  2  0  0  0
 27 46  1  0  0  0
 28 99  1  0  0  0
 28 29  1  0  0  0
 29 47  1  0  0  0
 29 30  2  0  0  0
 30 31  1  0  0  0
 30103  1  0  0  0
 31 48  1  0  0  0
 32 33  1  0  0  0
 32 37  2  0  0  0
 33 49  1  0  0  0
 33 34  2  0  0  0
 34107  1  0  0  0
 34 35  1  0  0  0
 35 36  2  0  0  0
 35 50  1  0  0  0
 36 37  1  0  0  0
 36111  1  0  0  0
 37 51  1  0  0  0
 52 54  1  0  0  0
 53 54  1  0  0  0
 55 59  1  0  0  0
 55 72  1  0  0  0
 55 60  1  0  0  0
 58 81  1  0  0  0
 58 80  1  0  0  0
 58 93  1  0  0  0
 60 61  1  0  0  0
 60 62  1  0  0  0
 61 64  1  0  0  0
 61 65  1  0  0  0
 61 63  1  0  0  0
 62 67  1  0  0  0
 62 66  1  0  0  0
 62 68  1  0  0  0
 69 75  1  0  0  0
 69 70  2  0  0  0
 69 74  1  0  0  0
 70 76  1  0  0  0
 70 71  1  0  0  0
 71 72  2  0  0  0
 71 77  1  0  0  0
 72 73  1  0  0  0
 73 74  2  0  0  0
 73 78  1  0  0  0
 74 79  1  0  0  0
 80 83  1  0  0  0
 80 82  1  0  0  0
 82 86  1  0  0  0
 82 84  1  0  0  0
 82 85  1  0  0  0
 83 89  1  0  0  0
 83 88  1  0  0  0
 83 87  1  0  0  0
 90 95  1  0  0  0
 90 91  2  0  0  0
 90 96  1  0  0  0
 91 92  1  0  0  0
 91131  1  0  0  0
 92 93  2  0  0  0
 92 97  1  0  0  0
 93 94  1  0  0  0
 94 98  1  0  0  0
 94 95  2  0  0  0
 95132  1  0  0  0
 99100  1  0  0  0
 99101  1  0  0  0
 99102  1  0  0  0
103105  1  0  0  0
103104  1  0  0  0
103106  1  0  0  0
107110  1  0  0  0
107108  1  0  0  0
107109  1  0  0  0
111114  1  0  0  0
111112  1  0  0  0
111113  1  0  0  0
115116  1  0  0  0
115117  1  0  0  0
115118  1  0  0  0
119122  1  0  0  0
119121  1  0  0  0
119120  1  0  0  0
123125  1  0  0  0
123124  1  0  0  0
123126  1  0  0  0
127130  1  0  0  0
127129  1  0  0  0
127128  1  0  0  0
M  CHG  3   1   2   5  -1  13  -1
M  END
> <s_m_entry_id>
470

> <s_m_entry_name>
M003-1_6.1

> <program>
Gaussian 16, Revision B.01

> <chiral flag>
1

> <version>
0

> <s_m_Source_Path>
/home/sigmangrp/Documents/Schrodinger/conf_cluster_711

> <s_m_Source_File>
conf_cluster_711_ligand1_representatives.maegz

> <i_m_Source_File_Index>
5

> <r_mmod_Potential_Energy-OPLS-2005>
-6.14278984069824

> <b_mmod_Minimization_Converged-OPLS-2005>
1

> <r_mmod_RMS_Derivative-OPLS-2005>
0.00075154093792662

> <i_mmod_Times_Found-OPLS-2005>
167

> <r_mmod_Relative_Potential_Energy-OPLS-2005>
0.954729080200195

> <i_mmod_Conformation-OPLS-2005>
5

> <i_mmod_Serial_Number-OPLS-2005>
3

> <s_m_job_name>
mmod_csearch_2402

> <r_canvas_Distance_To_Centroid>
0

> <b_canvas_Is_Nearest_To_Centroid>
1

> <b_canvas_Is_Farthest_From_Centroid>
1

> <r_canvas_Max_Distance_From_Centroid>
0

> <r_canvas_Average_Distance_From_Centroid>
0

> <r_canvas_Cluster_Variance>
0

> <i_canvas_Canvas_Cluster_Index>
5

> <i_canvas_Canvas_Cluster_Size>
1

> <s_m_subgroup_title>
conf_cluster_711_ligand1_representatives

> <s_m_subgroupid>
conf_cluster_711_ligand1_representatives

> <b_m_subgroup_collapsed>
0

$$$$
