M003_1
                    3D
 Structure written by MMmdl.
134138  0  0  1  0            999 V2000
    0.0866   -1.7345    1.7411 Fe  0  2  0  0  0  0
    1.8370   -0.1019   -0.7137 P   0  0  0  0  0  0
   -1.7572    0.1287   -0.5312 P   0  0  0  0  0  0
    1.6029   -1.5445    0.4455 C   0  0  2  0  0  0
    0.7534   -2.6324    0.0459 C   0  5  1  0  0  0
    0.7280   -3.6123    1.0847 C   0  0  1  0  0  0
    1.5385   -3.1497    2.1617 C   0  0  1  0  0  0
    2.1174   -1.9137    1.7404 C   0  0  1  0  0  0
   -1.4480   -0.5313    1.2088 C   0  0  1  0  0  0
   -1.9538   -1.6593    1.9628 C   0  0  1  0  0  0
   -1.3324   -1.7077    3.2483 C   0  0  2  0  0  0
   -0.5012   -0.5602    3.3466 C   0  0  2  0  0  0
   -0.5568    0.1485    2.1104 C   0  5  1  0  0  0
    3.4118   -0.6509   -1.5905 C   0  0  0  0  0  0
    3.7861   -2.0119   -1.6565 C   0  0  0  0  0  0
    4.9580   -2.4190   -2.3282 C   0  0  0  0  0  0
    5.7751   -1.4507   -2.9446 C   0  0  0  0  0  0
    5.4188   -0.0890   -2.9028 C   0  0  0  0  0  0
    4.2364    0.2966   -2.2372 C   0  0  0  0  0  0
    2.3796    1.4683    0.1647 C   0  0  0  0  0  0
    3.7141    1.6875    0.5739 C   0  0  0  0  0  0
    4.1069    2.8917    1.1945 C   0  0  0  0  0  0
    3.1497    3.9035    1.4101 C   0  0  0  0  0  0
    1.8171    3.7171    0.9904 C   0  0  0  0  0  0
    1.4492    2.5093    0.3616 C   0  0  0  0  0  0
   -2.3554    1.8561   -0.0967 C   0  0  0  0  0  0
   -2.9155    2.1640    1.1643 C   0  0  0  0  0  0
   -3.3648    3.4653    1.4696 C   0  0  0  0  0  0
   -3.2433    4.4832    0.5026 C   0  0  0  0  0  0
   -2.6853    4.2015   -0.7600 C   0  0  0  0  0  0
   -2.2525    2.8898   -1.0512 C   0  0  0  0  0  0
   -3.3507   -0.6396   -1.1466 C   0  0  0  0  0  0
   -4.6194   -0.2108   -0.6984 C   0  0  0  0  0  0
   -5.8040   -0.8164   -1.1683 C   0  0  0  0  0  0
   -5.7206   -1.8676   -2.1021 C   0  0  0  0  0  0
   -4.4670   -2.3026   -2.5739 C   0  0  0  0  0  0
   -3.2928   -1.6879   -2.0887 C   0  0  0  0  0  0
    0.1949   -2.7018   -0.8759 H   0  0  0  0  0  0
    0.0001    1.0467    1.9082 H   0  0  0  0  0  0
    3.1813   -2.7748   -1.1876 H   0  0  0  0  0  0
    6.6772   -1.7521   -3.4568 H   0  0  0  0  0  0
    3.9608    1.3414   -2.2360 H   0  0  0  0  0  0
    4.4661    0.9261    0.4204 H   0  0  0  0  0  0
    3.4407    4.8238    1.8958 H   0  0  0  0  0  0
    0.4265    2.3988    0.0360 H   0  0  0  0  0  0
   -3.0183    1.4010    1.9236 H   0  0  0  0  0  0
   -3.5791    5.4849    0.7278 H   0  0  0  0  0  0
   -1.8440    2.6907   -2.0305 H   0  0  0  0  0  0
   -4.7066    0.5802    0.0299 H   0  0  0  0  0  0
   -6.6227   -2.3459   -2.4556 H   0  0  0  0  0  0
   -2.3366   -2.0348   -2.4526 H   0  0  0  0  0  0
    1.4890    0.3705   -3.9989 Cl  0  0  0  0  0  0
   -1.6972    0.5916   -3.8102 Cl  0  0  0  0  0  0
   -0.0200    0.2256   -2.2286 Pd  0  0  0  0  0  0
    3.1851   -1.1833    2.5305 C   0  0  2  0  0  0
    0.0881   -0.3036    4.2099 H   0  0  0  0  0  0
   -1.4915   -2.4530    4.0138 H   0  0  0  0  0  0
   -3.0585   -2.6209    1.5705 C   0  0  2  0  0  0
    3.5411   -0.3628    1.9222 H   0  0  0  0  0  0
    4.3426   -2.0531    2.7616 N   0  0  0  0  0  0
    4.8898   -2.6122    1.5257 C   0  0  0  0  0  0
    5.4370   -1.3298    3.4134 C   0  0  0  0  0  0
    5.7614   -3.2343    1.7342 H   0  0  0  0  0  0
    4.1678   -3.2576    1.0242 H   0  0  0  0  0  0
    5.1923   -1.8287    0.8304 H   0  0  0  0  0  0
    6.2915   -1.9882    3.5760 H   0  0  0  0  0  0
    5.7740   -0.4826    2.8141 H   0  0  0  0  0  0
    5.1485   -0.9522    4.3949 H   0  0  0  0  0  0
    1.8270    0.5157    6.2990 C   0  0  0  0  0  0
    2.0060   -0.8758    6.1802 C   0  0  0  0  0  0
    2.4264   -1.4291    4.9550 C   0  0  0  0  0  0
    2.6644   -0.5970    3.8370 C   0  0  0  0  0  0
    2.4950    0.7989    3.9699 C   0  0  0  0  0  0
    2.0745    1.3536    5.1948 C   0  0  0  0  0  0
    1.5064    0.9407    7.2396 H   0  0  0  0  0  0
    1.8308   -1.5181    7.0314 H   0  0  0  0  0  0
    2.5972   -2.4935    4.8781 H   0  0  0  0  0  0
    2.6945    1.4552    3.1402 H   0  0  0  0  0  0
    1.9442    2.4220    5.2919 H   0  0  0  0  0  0
   -4.1288   -2.6081    2.5730 N   0  0  0  0  0  0
   -3.5066   -2.2983    0.6388 H   0  0  0  0  0  0
   -5.2582   -3.4453    2.1642 C   0  0  0  0  0  0
   -4.6662   -1.2702    2.8280 C   0  0  0  0  0  0
   -5.6913   -3.1048    1.2227 H   0  0  0  0  0  0
   -4.9670   -4.4891    2.0422 H   0  0  0  0  0  0
   -6.0440   -3.4289    2.9209 H   0  0  0  0  0  0
   -5.0915   -0.8252    1.9300 H   0  0  0  0  0  0
   -5.4520   -1.3108    3.5836 H   0  0  0  0  0  0
   -3.9043   -0.5931    3.2155 H   0  0  0  0  0  0
   -1.6423   -6.6863    0.9159 C   0  0  0  0  0  0
   -1.7663   -6.1884    2.2270 C   0  0  0  0  0  0
   -2.2055   -4.8671    2.4392 C   0  0  0  0  0  0
   -2.5203   -4.0301    1.3436 C   0  0  0  0  0  0
   -2.4003   -4.5420    0.0331 C   0  0  0  0  0  0
   -1.9621   -5.8635   -0.1809 C   0  0  0  0  0  0
   -1.3094   -7.7013    0.7522 H   0  0  0  0  0  0
   -2.3328   -4.5019    3.4484 H   0  0  0  0  0  0
   -2.6627   -3.9378   -0.8184 H   0  0  0  0  0  0
   -3.9648    3.7527    2.8377 C   0  0  0  0  0  0
   -2.9880    3.8221    3.7401 F   0  0  0  0  0  0
   -4.6391    4.9027    2.8415 F   0  0  0  0  0  0
   -4.8005    2.7714    3.1785 F   0  0  0  0  0  0
   -2.5634    5.2947   -1.8112 C   0  0  0  0  0  0
   -3.6425    5.2671   -2.5906 F   0  0  0  0  0  0
   -2.4685    6.4967   -1.2436 F   0  0  0  0  0  0
   -1.4815    5.0935   -2.5646 F   0  0  0  0  0  0
   -7.1572   -0.3612   -0.6436 C   0  0  0  0  0  0
   -7.1275    0.9326   -0.3242 F   0  0  0  0  0  0
   -8.1077   -0.5521   -1.5579 F   0  0  0  0  0  0
   -7.4548   -1.0685    0.4449 F   0  0  0  0  0  0
   -4.3774   -3.4501   -3.5683 C   0  0  0  0  0  0
   -4.3216   -4.5963   -2.8929 F   0  0  0  0  0  0
   -5.4420   -3.4679   -4.3694 F   0  0  0  0  0  0
   -3.2799   -3.3402   -4.3168 F   0  0  0  0  0  0
    5.3418   -3.8908   -2.3624 C   0  0  0  0  0  0
    6.1707   -4.1488   -3.3741 F   0  0  0  0  0  0
    5.9472   -4.2058   -1.2186 F   0  0  0  0  0  0
    4.2556   -4.6504   -2.5019 F   0  0  0  0  0  0
    6.2923    0.9556   -3.5815 C   0  0  0  0  0  0
    5.8948    1.1061   -4.8431 F   0  0  0  0  0  0
    6.1928    2.1278   -2.9534 F   0  0  0  0  0  0
    7.5706    0.5782   -3.5712 F   0  0  0  0  0  0
    5.5474    3.0639    1.6497 C   0  0  0  0  0  0
    6.3762    2.6118    0.7094 F   0  0  0  0  0  0
    5.8332    4.3417    1.8971 F   0  0  0  0  0  0
    5.7292    2.3537    2.7615 F   0  0  0  0  0  0
    0.7617    4.7903    1.2037 C   0  0  0  0  0  0
    1.2533    5.8594    1.8277 F   0  0  0  0  0  0
    0.2740    5.1615    0.0217 F   0  0  0  0  0  0
   -0.2305    4.2812    1.9317 F   0  0  0  0  0  0
   -1.5347   -6.8229    3.0706 H   0  0  0  0  0  0
   -1.8794   -6.2509   -1.1866 H   0  0  0  0  0  0
    0.1599   -4.5284    1.0848 H   0  0  0  0  0  0
    1.6936   -3.6433    3.1100 H   0  0  0  0  0  0
  2 20  1  0  0  0
  2  4  1  0  0  0
  2 14  1  0  0  0
  3 26  1  0  0  0
  3  9  1  0  0  0
  3 32  1  0  0  0
  4  5  1  0  0  0
  4  8  2  0  0  0
  5  6  1  0  0  0
  5 38  1  0  0  0
  6133  1  0  0  0
  6  7  2  0  0  0
  7134  1  0  0  0
  7  8  1  0  0  0
  8 55  1  0  0  0
  9 10  2  0  0  0
  9 13  1  0  0  0
 10 58  1  0  0  0
 10 11  1  0  0  0
 11 12  2  0  0  0
 11 57  1  0  0  0
 12 56  1  0  0  0
 12 13  1  0  0  0
 13 39  1  0  0  0
 14 15  2  0  0  0
 14 19  1  0  0  0
 15 40  1  0  0  0
 15 16  1  0  0  0
 16 17  2  0  0  0
 16115  1  0  0  0
 17 18  1  0  0  0
 17 41  1  0  0  0
 18 19  2  0  0  0
 18119  1  0  0  0
 19 42  1  0  0  0
 20 21  1  0  0  0
 20 25  2  0  0  0
 21 43  1  0  0  0
 21 22  2  0  0  0
 22 23  1  0  0  0
 22123  1  0  0  0
 23 44  1  0  0  0
 23 24  2  0  0  0
 24127  1  0  0  0
 24 25  1  0  0  0
 25 45  1  0  0  0
 26 27  1  0  0  0
 26 31  2  0  0  0
 27 28  2  0  0  0
 27 46  1  0  0  0
 28 99  1  0  0  0
 28 29  1  0  0  0
 29 47  1  0  0  0
 29 30  2  0  0  0
 30 31  1  0  0  0
 30103  1  0  0  0
 31 48  1  0  0  0
 32 33  1  0  0  0
 32 37  2  0  0  0
 33 49  1  0  0  0
 33 34  2  0  0  0
 34107  1  0  0  0
 34 35  1  0  0  0
 35 36  2  0  0  0
 35 50  1  0  0  0
 36 37  1  0  0  0
 36111  1  0  0  0
 37 51  1  0  0  0
 52 54  1  0  0  0
 53 54  1  0  0  0
 55 59  1  0  0  0
 55 72  1  0  0  0
 55 60  1  0  0  0
 58 81  1  0  0  0
 58 80  1  0  0  0
 58 93  1  0  0  0
 60 61  1  0  0  0
 60 62  1  0  0  0
 61 64  1  0  0  0
 61 65  1  0  0  0
 61 63  1  0  0  0
 62 67  1  0  0  0
 62 66  1  0  0  0
 62 68  1  0  0  0
 69 75  1  0  0  0
 69 70  2  0  0  0
 69 74  1  0  0  0
 70 76  1  0  0  0
 70 71  1  0  0  0
 71 72  2  0  0  0
 71 77  1  0  0  0
 72 73  1  0  0  0
 73 74  2  0  0  0
 73 78  1  0  0  0
 74 79  1  0  0  0
 80 83  1  0  0  0
 80 82  1  0  0  0
 82 86  1  0  0  0
 82 84  1  0  0  0
 82 85  1  0  0  0
 83 89  1  0  0  0
 83 88  1  0  0  0
 83 87  1  0  0  0
 90 95  1  0  0  0
 90 91  2  0  0  0
 90 96  1  0  0  0
 91 92  1  0  0  0
 91131  1  0  0  0
 92 93  2  0  0  0
 92 97  1  0  0  0
 93 94  1  0  0  0
 94 98  1  0  0  0
 94 95  2  0  0  0
 95132  1  0  0  0
 99100  1  0  0  0
 99101  1  0  0  0
 99102  1  0  0  0
103105  1  0  0  0
103104  1  0  0  0
103106  1  0  0  0
107110  1  0  0  0
107108  1  0  0  0
107109  1  0  0  0
111114  1  0  0  0
111112  1  0  0  0
111113  1  0  0  0
115116  1  0  0  0
115117  1  0  0  0
115118  1  0  0  0
119122  1  0  0  0
119121  1  0  0  0
119120  1  0  0  0
123125  1  0  0  0
123124  1  0  0  0
123126  1  0  0  0
127130  1  0  0  0
127129  1  0  0  0
127128  1  0  0  0
M  CHG  3   1   2   5  -1  13  -1
M  END
> <s_m_entry_id>
469

> <s_m_entry_name>
M003-1_6.1

> <program>
Gaussian 16, Revision B.01

> <chiral flag>
1

> <version>
0

> <s_m_Source_Path>
/home/sigmangrp/Documents/Schrodinger/conf_cluster_711

> <s_m_Source_File>
conf_cluster_711_ligand1_representatives.maegz

> <i_m_Source_File_Index>
4

> <r_mmod_Potential_Energy-OPLS-2005>
-5.98624086380005

> <b_mmod_Minimization_Converged-OPLS-2005>
1

> <r_mmod_RMS_Derivative-OPLS-2005>
0.000934882031287998

> <i_mmod_Times_Found-OPLS-2005>
117

> <r_mmod_Relative_Potential_Energy-OPLS-2005>
1.11127805709839

> <i_mmod_Conformation-OPLS-2005>
6

> <i_mmod_Serial_Number-OPLS-2005>
3

> <s_m_job_name>
mmod_csearch_2402

> <r_canvas_Distance_To_Centroid>
0

> <b_canvas_Is_Nearest_To_Centroid>
1

> <b_canvas_Is_Farthest_From_Centroid>
1

> <r_canvas_Max_Distance_From_Centroid>
0

> <r_canvas_Average_Distance_From_Centroid>
0

> <r_canvas_Cluster_Variance>
0

> <i_canvas_Canvas_Cluster_Index>
4

> <i_canvas_Canvas_Cluster_Size>
1

> <s_m_subgroup_title>
conf_cluster_711_ligand1_representatives

> <s_m_subgroupid>
conf_cluster_711_ligand1_representatives

> <b_m_subgroup_collapsed>
0

$$$$
