M003_1
                    3D
 Structure written by MMmdl.
134138  0  0  1  0            999 V2000
    0.0440   -1.6626    1.7278 Fe  0  2  0  0  0  0
    1.8011   -0.1033   -0.7393 P   0  0  0  0  0  0
   -1.7802    0.1663   -0.5701 P   0  0  0  0  0  0
    1.5514   -1.5378    0.4238 C   0  0  2  0  0  0
    0.6712   -2.6087    0.0421 C   0  5  1  0  0  0
    0.6221   -3.5700    1.0945 C   0  0  1  0  0  0
    1.4501   -3.1157    2.1594 C   0  0  1  0  0  0
    2.0583   -1.8919    1.7290 C   0  0  1  0  0  0
   -1.4620   -0.4285    1.1963 C   0  0  1  0  0  0
   -1.9848   -1.5158    1.9975 C   0  0  1  0  0  0
   -1.3314   -1.5447    3.2698 C   0  0  2  0  0  0
   -0.4480   -0.4294    3.3162 C   0  0  2  0  0  0
   -0.5308    0.2493    2.0630 C   0  5  1  0  0  0
    3.4241   -0.6078   -1.5472 C   0  0  0  0  0  0
    4.1984    0.3493   -2.2389 C   0  0  0  0  0  0
    5.4324    0.0069   -2.8297 C   0  0  0  0  0  0
    5.8923   -1.3216   -2.7476 C   0  0  0  0  0  0
    5.1307   -2.2992   -2.0782 C   0  0  0  0  0  0
    3.9047   -1.9352   -1.4821 C   0  0  0  0  0  0
    2.2771    1.5063    0.1044 C   0  0  0  0  0  0
    3.5804    1.7461    0.5911 C   0  0  0  0  0  0
    3.9390    2.9915    1.1530 C   0  0  0  0  0  0
    2.9732    4.0122    1.2428 C   0  0  0  0  0  0
    1.6724    3.8041    0.7452 C   0  0  0  0  0  0
    1.3417    2.5600    0.1691 C   0  0  0  0  0  0
   -2.3947    1.9058   -0.2147 C   0  0  0  0  0  0
   -2.9088    2.2763    1.0490 C   0  0  0  0  0  0
   -3.3914    3.5785    1.2918 C   0  0  0  0  0  0
   -3.3519    4.5349    0.2575 C   0  0  0  0  0  0
   -2.8388    4.1912   -1.0089 C   0  0  0  0  0  0
   -2.3702    2.8790   -1.2360 C   0  0  0  0  0  0
   -3.3789   -0.6206   -1.1496 C   0  0  0  0  0  0
   -4.6445   -0.1677   -0.7152 C   0  0  0  0  0  0
   -5.8339   -0.7813   -1.1612 C   0  0  0  0  0  0
   -5.7592   -1.8662   -2.0565 C   0  0  0  0  0  0
   -4.5094   -2.3268   -2.5137 C   0  0  0  0  0  0
   -3.3299   -1.7033   -2.0525 C   0  0  0  0  0  0
    0.1070   -2.6742   -0.8764 H   0  0  0  0  0  0
    0.0473    1.1222    1.8175 H   0  0  0  0  0  0
    3.8485    1.3681   -2.3207 H   0  0  0  0  0  0
    6.8341   -1.5953   -3.2000 H   0  0  0  0  0  0
    3.3450   -2.6959   -0.9582 H   0  0  0  0  0  0
    4.3289    0.9715    0.5121 H   0  0  0  0  0  0
    3.2435    4.9610    1.6837 H   0  0  0  0  0  0
    0.3456    2.4323   -0.2238 H   0  0  0  0  0  0
   -2.9577    1.5618    1.8589 H   0  0  0  0  0  0
   -3.7164    5.5367    0.4320 H   0  0  0  0  0  0
   -2.0000    2.6304   -2.2190 H   0  0  0  0  0  0
   -4.7265    0.6505   -0.0168 H   0  0  0  0  0  0
   -6.6644   -2.3512   -2.3925 H   0  0  0  0  0  0
   -2.3764   -2.0692   -2.4049 H   0  0  0  0  0  0
    1.4720    0.1944   -4.0468 Cl  0  0  0  0  0  0
   -1.7163    0.4658   -3.8769 Cl  0  0  0  0  0  0
   -0.0440    0.1640   -2.2774 Pd  0  0  0  0  0  0
    3.0701   -1.0976    2.5295 C   0  0  2  0  0  0
    0.1958   -0.1763    4.1444 H   0  0  0  0  0  0
   -1.4937   -2.2640    4.0592 H   0  0  0  0  0  0
   -3.1230   -2.4605    1.6636 C   0  0  2  0  0  0
    2.7956   -0.0567    2.3654 H   0  0  0  0  0  0
    4.4058   -1.2295    1.9449 N   0  0  0  0  0  0
    5.3945   -0.4023    2.6342 C   0  0  0  0  0  0
    4.9307   -2.5920    1.8581 C   0  0  0  0  0  0
    6.3254   -0.3596    2.0670 H   0  0  0  0  0  0
    5.0373    0.6176    2.7643 H   0  0  0  0  0  0
    5.6262   -0.7948    3.6261 H   0  0  0  0  0  0
    5.8443   -2.6008    1.2630 H   0  0  0  0  0  0
    5.1829   -3.0017    2.8350 H   0  0  0  0  0  0
    4.2283   -3.2695    1.3714 H   0  0  0  0  0  0
    2.9031   -1.5044    6.8778 C   0  0  0  0  0  0
    3.2073   -2.6294    6.0899 C   0  0  0  0  0  0
    3.2623   -2.5139    4.6875 C   0  0  0  0  0  0
    2.9994   -1.2777    4.0523 C   0  0  0  0  0  0
    2.7182   -0.1509    4.8583 C   0  0  0  0  0  0
    2.6626   -0.2632    6.2610 C   0  0  0  0  0  0
    2.8627   -1.5916    7.9542 H   0  0  0  0  0  0
    3.4034   -3.5818    6.5613 H   0  0  0  0  0  0
    3.5035   -3.3882    4.1028 H   0  0  0  0  0  0
    2.5437    0.8147    4.4062 H   0  0  0  0  0  0
    2.4406    0.6047    6.8657 H   0  0  0  0  0  0
   -4.1721   -2.3757    2.6846 N   0  0  0  0  0  0
   -3.5803   -2.1647    0.7278 H   0  0  0  0  0  0
   -5.3297   -3.2013    2.3355 C   0  0  0  0  0  0
   -4.6708   -1.0139    2.8860 C   0  0  0  0  0  0
   -5.7706   -2.8952    1.3858 H   0  0  0  0  0  0
   -5.0675   -4.2571    2.2594 H   0  0  0  0  0  0
   -6.1014   -3.1280    3.1033 H   0  0  0  0  0  0
   -5.1002   -0.5996    1.9752 H   0  0  0  0  0  0
   -5.4440   -0.9990    3.6555 H   0  0  0  0  0  0
   -3.8849   -0.3403    3.2292 H   0  0  0  0  0  0
   -1.8306   -6.5891    1.1554 C   0  0  0  0  0  0
   -1.9021   -6.0296    2.4453 C   0  0  0  0  0  0
   -2.3023   -4.6892    2.6097 C   0  0  0  0  0  0
   -2.6280   -3.8933    1.4869 C   0  0  0  0  0  0
   -2.5617   -4.4676    0.1987 C   0  0  0  0  0  0
   -2.1641   -5.8086    0.0323 C   0  0  0  0  0  0
   -1.5289   -7.6191    1.0285 H   0  0  0  0  0  0
   -2.3932   -4.2783    3.6050 H   0  0  0  0  0  0
   -2.8351   -3.8966   -0.6715 H   0  0  0  0  0  0
   -3.9447    3.9263    2.6654 C   0  0  0  0  0  0
   -4.5483    5.1149    2.6668 F   0  0  0  0  0  0
   -4.8295    3.0000    3.0344 F   0  0  0  0  0  0
   -2.9487    3.9477    3.5493 F   0  0  0  0  0  0
   -2.8066    5.2177   -2.1315 C   0  0  0  0  0  0
   -1.7613    5.0001   -2.9303 F   0  0  0  0  0  0
   -3.9248    5.1107   -2.8463 F   0  0  0  0  0  0
   -2.7193    6.4554   -1.6450 F   0  0  0  0  0  0
   -7.1815   -0.2943   -0.6510 C   0  0  0  0  0  0
   -8.1461   -0.5513   -1.5338 F   0  0  0  0  0  0
   -7.4601   -0.9217    0.4901 F   0  0  0  0  0  0
   -7.1493    1.0191   -0.4256 F   0  0  0  0  0  0
   -4.4331   -3.5103   -3.4663 C   0  0  0  0  0  0
   -4.4399   -4.6341   -2.7520 F   0  0  0  0  0  0
   -5.4759   -3.5154   -4.2957 F   0  0  0  0  0  0
   -3.3127   -3.4676   -4.1870 F   0  0  0  0  0  0
    6.2503    1.0632   -3.5573 C   0  0  0  0  0  0
    6.0768    2.2581   -2.9909 F   0  0  0  0  0  0
    7.5491    0.7648   -3.5231 F   0  0  0  0  0  0
    5.8545    1.1261   -4.8270 F   0  0  0  0  0  0
    5.6454   -3.7284   -1.9872 C   0  0  0  0  0  0
    6.5177   -3.8169   -0.9844 F   0  0  0  0  0  0
    4.6515   -4.5903   -1.7711 F   0  0  0  0  0  0
    6.2589   -4.0703   -3.1203 F   0  0  0  0  0  0
    5.3481    3.2439    1.6687 C   0  0  0  0  0  0
    6.2189    2.3816    1.1445 F   0  0  0  0  0  0
    5.7355    4.4799    1.3567 F   0  0  0  0  0  0
    5.3518    3.1130    2.9941 F   0  0  0  0  0  0
    0.6166    4.8952    0.8171 C   0  0  0  0  0  0
    1.1142    6.0448    1.2700 F   0  0  0  0  0  0
    0.1066    5.0930   -0.3971 F   0  0  0  0  0  0
   -0.3597    4.4949    1.6290 F   0  0  0  0  0  0
   -1.6623   -6.6319    3.3099 H   0  0  0  0  0  0
   -2.1226   -6.2426   -0.9570 H   0  0  0  0  0  0
    0.0251   -4.4675    1.1116 H   0  0  0  0  0  0
    1.5539   -3.6120    3.1112 H   0  0  0  0  0  0
  2 20  1  0  0  0
  2  4  1  0  0  0
  2 14  1  0  0  0
  3 26  1  0  0  0
  3  9  1  0  0  0
  3 32  1  0  0  0
  4  5  1  0  0  0
  4  8  2  0  0  0
  5  6  1  0  0  0
  5 38  1  0  0  0
  6133  1  0  0  0
  6  7  2  0  0  0
  7134  1  0  0  0
  7  8  1  0  0  0
  8 55  1  0  0  0
  9 10  2  0  0  0
  9 13  1  0  0  0
 10 58  1  0  0  0
 10 11  1  0  0  0
 11 12  2  0  0  0
 11 57  1  0  0  0
 12 56  1  0  0  0
 12 13  1  0  0  0
 13 39  1  0  0  0
 14 15  2  0  0  0
 14 19  1  0  0  0
 15 40  1  0  0  0
 15 16  1  0  0  0
 16 17  2  0  0  0
 16115  1  0  0  0
 17 18  1  0  0  0
 17 41  1  0  0  0
 18 19  2  0  0  0
 18119  1  0  0  0
 19 42  1  0  0  0
 20 21  1  0  0  0
 20 25  2  0  0  0
 21 43  1  0  0  0
 21 22  2  0  0  0
 22 23  1  0  0  0
 22123  1  0  0  0
 23 44  1  0  0  0
 23 24  2  0  0  0
 24127  1  0  0  0
 24 25  1  0  0  0
 25 45  1  0  0  0
 26 27  1  0  0  0
 26 31  2  0  0  0
 27 28  2  0  0  0
 27 46  1  0  0  0
 28 99  1  0  0  0
 28 29  1  0  0  0
 29 47  1  0  0  0
 29 30  2  0  0  0
 30 31  1  0  0  0
 30103  1  0  0  0
 31 48  1  0  0  0
 32 33  1  0  0  0
 32 37  2  0  0  0
 33 49  1  0  0  0
 33 34  2  0  0  0
 34107  1  0  0  0
 34 35  1  0  0  0
 35 36  2  0  0  0
 35 50  1  0  0  0
 36 37  1  0  0  0
 36111  1  0  0  0
 37 51  1  0  0  0
 52 54  1  0  0  0
 53 54  1  0  0  0
 55 59  1  0  0  0
 55 72  1  0  0  0
 55 60  1  0  0  0
 58 81  1  0  0  0
 58 80  1  0  0  0
 58 93  1  0  0  0
 60 61  1  0  0  0
 60 62  1  0  0  0
 61 64  1  0  0  0
 61 65  1  0  0  0
 61 63  1  0  0  0
 62 67  1  0  0  0
 62 66  1  0  0  0
 62 68  1  0  0  0
 69 75  1  0  0  0
 69 70  2  0  0  0
 69 74  1  0  0  0
 70 76  1  0  0  0
 70 71  1  0  0  0
 71 72  2  0  0  0
 71 77  1  0  0  0
 72 73  1  0  0  0
 73 74  2  0  0  0
 73 78  1  0  0  0
 74 79  1  0  0  0
 80 83  1  0  0  0
 80 82  1  0  0  0
 82 86  1  0  0  0
 82 84  1  0  0  0
 82 85  1  0  0  0
 83 89  1  0  0  0
 83 88  1  0  0  0
 83 87  1  0  0  0
 90 95  1  0  0  0
 90 91  2  0  0  0
 90 96  1  0  0  0
 91 92  1  0  0  0
 91131  1  0  0  0
 92 93  2  0  0  0
 92 97  1  0  0  0
 93 94  1  0  0  0
 94 98  1  0  0  0
 94 95  2  0  0  0
 95132  1  0  0  0
 99100  1  0  0  0
 99101  1  0  0  0
 99102  1  0  0  0
103105  1  0  0  0
103104  1  0  0  0
103106  1  0  0  0
107110  1  0  0  0
107108  1  0  0  0
107109  1  0  0  0
111114  1  0  0  0
111112  1  0  0  0
111113  1  0  0  0
115116  1  0  0  0
115117  1  0  0  0
115118  1  0  0  0
119122  1  0  0  0
119121  1  0  0  0
119120  1  0  0  0
123125  1  0  0  0
123124  1  0  0  0
123126  1  0  0  0
127130  1  0  0  0
127129  1  0  0  0
127128  1  0  0  0
M  CHG  3   1   2   5  -1  13  -1
M  END
> <s_m_entry_id>
468

> <s_m_entry_name>
M003-1_6.1

> <program>
Gaussian 16, Revision B.01

> <chiral flag>
1

> <version>
0

> <s_m_Source_Path>
/home/sigmangrp/Documents/Schrodinger/conf_cluster_711

> <s_m_Source_File>
conf_cluster_711_ligand1_representatives.maegz

> <i_m_Source_File_Index>
3

> <r_mmod_Potential_Energy-OPLS-2005>
-7.07879590988159

> <b_mmod_Minimization_Converged-OPLS-2005>
1

> <r_mmod_RMS_Derivative-OPLS-2005>
0.0009010523208417

> <i_mmod_Times_Found-OPLS-2005>
207

> <r_mmod_Relative_Potential_Energy-OPLS-2005>
0.0187230110168457

> <i_mmod_Conformation-OPLS-2005>
2

> <i_mmod_Serial_Number-OPLS-2005>
3

> <s_m_job_name>
mmod_csearch_2402

> <r_canvas_Distance_To_Centroid>
0

> <b_canvas_Is_Nearest_To_Centroid>
1

> <b_canvas_Is_Farthest_From_Centroid>
1

> <r_canvas_Max_Distance_From_Centroid>
0

> <r_canvas_Average_Distance_From_Centroid>
0

> <r_canvas_Cluster_Variance>
0

> <i_canvas_Canvas_Cluster_Index>
3

> <i_canvas_Canvas_Cluster_Size>
1

> <s_m_subgroup_title>
conf_cluster_711_ligand1_representatives

> <s_m_subgroupid>
conf_cluster_711_ligand1_representatives

> <b_m_subgroup_collapsed>
0

$$$$
