RSS-C3-Tunephos
                    3D
 Structure written by MMmdl.
 84 89  0  0  1  0            999 V2000
   -0.3274   -2.2796   -0.0530 Pd  0  0  0  0  0  0
    1.6101   -0.8526   -0.0292 P   0  0  0  0  0  0
   -1.7980   -0.3761    0.0164 P   0  0  0  0  0  0
   -0.3907    3.9761   -1.0080 O   0  0  0  0  0  0
    1.4462    3.6564    1.2720 O   0  0  0  0  0  0
    3.1563   -1.6380   -0.7663 C   0  0  0  0  0  0
    3.0418   -2.4638   -1.9071 C   0  0  0  0  0  0
    4.1775   -3.0600   -2.4883 C   0  0  0  0  0  0
    5.4502   -2.8351   -1.9335 C   0  0  0  0  0  0
    5.5811   -2.0144   -0.7984 C   0  0  0  0  0  0
    4.4417   -1.4211   -0.2208 C   0  0  0  0  0  0
    2.1614   -0.3569    1.6871 C   0  0  0  0  0  0
    2.8897    0.8303    1.9139 C   0  0  0  0  0  0
    3.2857    1.1918    3.2156 C   0  0  0  0  0  0
    2.9640    0.3602    4.3045 C   0  0  0  0  0  0
    2.2481   -0.8322    4.0872 C   0  0  0  0  0  0
    1.8502   -1.1876    2.7836 C   0  0  0  0  0  0
    1.3786    0.7252   -1.0412 C   0  0  0  0  0  0
    2.0012    0.8067   -2.3085 C   0  0  0  0  0  0
    1.8421    1.9299   -3.1347 C   0  0  0  0  0  0
    1.0484    3.0017   -2.7063 C   0  0  0  0  0  0
    0.4227    2.9526   -1.4440 C   0  0  0  0  0  0
    0.5759    1.8169   -0.6038 C   0  0  0  0  0  0
   -0.0732    1.8692    0.7274 C   0  0  0  0  0  0
    0.3770    2.8692    1.6298 C   0  0  0  0  0  0
   -0.2204    3.0238    2.8951 C   0  0  0  0  0  0
   -1.2826    2.1916    3.2711 C   0  0  0  0  0  0
   -1.7364    1.2009    2.3858 C   0  0  0  0  0  0
   -1.1495    1.0193    1.1111 C   0  0  0  0  0  0
   -3.5062   -0.7461    0.7208 C   0  0  0  0  0  0
   -3.6312   -1.6309    1.8153 C   0  0  0  0  0  0
   -4.8914   -1.9238    2.3713 C   0  0  0  0  0  0
   -6.0496   -1.3307    1.8374 C   0  0  0  0  0  0
   -5.9418   -0.4469    0.7483 C   0  0  0  0  0  0
   -4.6789   -0.1579    0.1956 C   0  0  0  0  0  0
   -2.1774    0.3472   -1.6653 C   0  0  0  0  0  0
   -2.0937   -0.4734   -2.8094 C   0  0  0  0  0  0
   -2.3682    0.0501   -4.0880 C   0  0  0  0  0  0
   -2.7317    1.4023   -4.2321 C   0  0  0  0  0  0
   -2.8251    2.2271   -3.0955 C   0  0  0  0  0  0
   -2.5533    1.6986   -1.8192 C   0  0  0  0  0  0
    1.2278    5.0620    1.2558 C   0  0  1  0  0  0
    2.0708   -2.6458   -2.3435 H   0  0  0  0  0  0
    6.3235   -3.2930   -2.3751 H   0  0  0  0  0  0
    4.5714   -0.7977    0.6502 H   0  0  0  0  0  0
    3.1313    1.4801    1.0844 H   0  0  0  0  0  0
    3.2666    0.6365    5.3041 H   0  0  0  0  0  0
    1.3076   -2.1084    2.6271 H   0  0  0  0  0  0
    2.6148    0.0017   -2.6785 H   0  0  0  0  0  0
    2.3204    1.9629   -4.1027 H   0  0  0  0  0  0
    0.9088    3.8447   -3.3642 H   0  0  0  0  0  0
    0.1462    3.7714    3.5820 H   0  0  0  0  0  0
   -1.7434    2.3053    4.2414 H   0  0  0  0  0  0
   -2.5514    0.5776    2.7153 H   0  0  0  0  0  0
   -2.7505   -2.0942    2.2351 H   0  0  0  0  0  0
   -7.0184   -1.5552    2.2598 H   0  0  0  0  0  0
   -4.6262    0.5220   -0.6403 H   0  0  0  0  0  0
   -1.8232   -1.5143   -2.7092 H   0  0  0  0  0  0
   -2.9393    1.8063   -5.2123 H   0  0  0  0  0  0
   -2.6168    2.3414   -0.9523 H   0  0  0  0  0  0
    2.3065    5.6779    2.1545 C   0  0  0  0  0  0
    0.2518    5.3378    1.6568 H   0  0  0  0  0  0
    1.0384   -4.1679    0.0099 Cl  0  0  0  0  0  0
   -2.1592   -3.7133   -0.2087 Cl  0  0  0  0  0  0
    1.3414    5.5455   -0.2071 C   0  0  0  0  0  0
    0.0965    5.3101   -1.0983 C   0  0  2  0  0  0
    0.3607    5.5463   -2.1285 H   0  0  0  0  0  0
   -1.0782    6.2267   -0.7317 C   0  0  0  0  0  0
    2.2085    5.0672   -0.6642 H   0  0  0  0  0  0
    1.5628    6.6129   -0.2169 H   0  0  0  0  0  0
    2.2130    6.7630    2.1986 H   0  0  0  0  0  0
    2.2270    5.2960    3.1724 H   0  0  0  0  0  0
    3.3055    5.4393    1.7888 H   0  0  0  0  0  0
   -0.7916    7.2774   -0.7742 H   0  0  0  0  0  0
   -1.9070    6.0817   -1.4250 H   0  0  0  0  0  0
   -1.4543    6.0180    0.2695 H   0  0  0  0  0  0
    6.5561   -1.8403   -0.3669 H   0  0  0  0  0  0
    3.8295    2.1114    3.3752 H   0  0  0  0  0  0
    2.0046   -1.4748    4.9208 H   0  0  0  0  0  0
    4.0711   -3.6926   -3.3576 H   0  0  0  0  0  0
   -2.3011   -0.5864   -4.9584 H   0  0  0  0  0  0
   -3.0981    3.2671   -3.1990 H   0  0  0  0  0  0
   -6.8285    0.0095    0.3328 H   0  0  0  0  0  0
   -4.9691   -2.6064    3.2052 H   0  0  0  0  0  0
  1 63  1  0  0  0
  1 64  1  0  0  0
  2 12  1  0  0  0
  2  6  1  0  0  0
  2 18  1  0  0  0
  3 30  1  0  0  0
  3 29  1  0  0  0
  3 36  1  0  0  0
  4 22  1  0  0  0
  4 66  1  0  0  0
  5 25  1  0  0  0
  5 42  1  0  0  0
  6 11  1  0  0  0
  6  7  2  0  0  0
  7  8  1  0  0  0
  7 43  1  0  0  0
  8  9  2  0  0  0
  8 80  1  0  0  0
  9 10  1  0  0  0
  9 44  1  0  0  0
 10 11  2  0  0  0
 10 77  1  0  0  0
 11 45  1  0  0  0
 12 13  2  0  0  0
 12 17  1  0  0  0
 13 14  1  0  0  0
 13 46  1  0  0  0
 14 15  2  0  0  0
 14 78  1  0  0  0
 15 47  1  0  0  0
 15 16  1  0  0  0
 16 17  2  0  0  0
 16 79  1  0  0  0
 17 48  1  0  0  0
 18 23  1  0  0  0
 18 19  2  0  0  0
 19 20  1  0  0  0
 19 49  1  0  0  0
 20 21  2  0  0  0
 20 50  1  0  0  0
 21 22  1  0  0  0
 21 51  1  0  0  0
 22 23  2  0  0  0
 23 24  1  0  0  0
 24 29  2  0  0  0
 24 25  1  0  0  0
 25 26  2  0  0  0
 26 27  1  0  0  0
 26 52  1  0  0  0
 27 53  1  0  0  0
 27 28  2  0  0  0
 28 54  1  0  0  0
 28 29  1  0  0  0
 30 31  1  0  0  0
 30 35  2  0  0  0
 31 55  1  0  0  0
 31 32  2  0  0  0
 32 33  1  0  0  0
 32 84  1  0  0  0
 33 56  1  0  0  0
 33 34  2  0  0  0
 34 35  1  0  0  0
 34 83  1  0  0  0
 35 57  1  0  0  0
 36 37  2  0  0  0
 36 41  1  0  0  0
 37 58  1  0  0  0
 37 38  1  0  0  0
 38 39  2  0  0  0
 38 81  1  0  0  0
 39 40  1  0  0  0
 39 59  1  0  0  0
 40 41  2  0  0  0
 40 82  1  0  0  0
 41 60  1  0  0  0
 42 62  1  0  0  0
 42 61  1  0  0  0
 42 65  1  0  0  0
 61 71  1  0  0  0
 61 72  1  0  0  0
 61 73  1  0  0  0
 65 66  1  0  0  0
 65 69  1  0  0  0
 65 70  1  0  0  0
 66 68  1  0  0  0
 66 67  1  0  0  0
 68 74  1  0  0  0
 68 75  1  0  0  0
 68 76  1  0  0  0
M  END
> <s_m_entry_id>
601

> <s_m_entry_name>
R_C3_Tunephos_1_5_SPE.1

> <program>
Gaussian 09, Revision D.01

> <chiral flag>
0

> <version>
0

> <s_m_Source_Path>
/home/sigmangrp/Dropbox/Current Group People/Jordan_D/OPT_10_26_21

> <s_m_Source_File>
R_C3_Tunephos_1_5_SPE.log

> <i_m_Source_File_Index>
1

> <s_m_job_name>
mmod_csearch_2382

> <r_mmod_Potential_Energy-OPLS-2005>
293.331787109375

> <b_mmod_Minimization_Converged-OPLS-2005>
1

> <r_mmod_RMS_Derivative-OPLS-2005>
0.000836023536976427

> <i_mmod_Times_Found-OPLS-2005>
826

> <r_mmod_Relative_Potential_Energy-OPLS-2005>
0

> <i_mmod_Conformation-OPLS-2005>
1

> <i_mmod_Serial_Number-OPLS-2005>
7

> <s_m_subgroup_title>
mmod_csearch_2382-out1

> <s_m_subgroupid>
mmod_csearch_2382-out1

> <b_m_subgroup_collapsed>
0

$$$$
