S-35tBu-C3-Tunephos
                    3D
 Structure written by MMmdl.
174179  0  0  1  0            999 V2000
   -4.0598   -1.4697    0.9694 Pd  0  0  0  0  0  0
   -5.0899   -0.0926    2.6519 P   0  0  0  0  0  0
   -2.3060    0.1440    0.6549 P   0  0  0  0  0  0
   -1.3206    3.4904    3.7425 O   0  0  0  0  0  0
   -4.0744    4.4607    3.2151 O   0  0  0  0  0  0
   -6.1805   -1.0620    3.8426 C   0  0  0  0  0  0
   -5.7341   -2.3186    4.2993 C   0  0  0  0  0  0
   -6.5059   -3.1021    5.1872 C   0  0  0  0  0  0
   -7.7534   -2.5943    5.6154 C   0  0  0  0  0  0
   -8.2338   -1.3379    5.1763 C   0  0  0  0  0  0
   -7.4276   -0.5855    4.2931 C   0  0  0  0  0  0
   -6.1834    1.2166    1.8895 C   0  0  0  0  0  0
   -6.7223    2.2915    2.6232 C   0  0  0  0  0  0
   -7.5674    3.2451    2.0097 C   0  0  0  0  0  0
   -7.8103    3.1275    0.6193 C   0  0  0  0  0  0
   -7.2559    2.0771   -0.1476 C   0  0  0  0  0  0
   -6.4570    1.1182    0.5135 C   0  0  0  0  0  0
   -3.8344    0.7749    3.7630 C   0  0  0  0  0  0
   -3.6217    0.2656    5.0654 C   0  0  0  0  0  0
   -2.6586    0.8202    5.9230 C   0  0  0  0  0  0
   -1.8816    1.9024    5.4894 C   0  0  0  0  0  0
   -2.0821    2.4393    4.2020 C   0  0  0  0  0  0
   -3.0557    1.8847    3.3290 C   0  0  0  0  0  0
   -3.2413    2.5444    2.0158 C   0  0  0  0  0  0
   -3.7230    3.8797    2.0214 C   0  0  0  0  0  0
   -3.8826    4.5966    0.8210 C   0  0  0  0  0  0
   -3.5423    3.9977   -0.3988 C   0  0  0  0  0  0
   -3.0581    2.6798   -0.4152 C   0  0  0  0  0  0
   -2.9042    1.9311    0.7757 C   0  0  0  0  0  0
   -1.4658    0.0215   -1.0245 C   0  0  0  0  0  0
   -2.2598   -0.0910   -2.1823 C   0  0  0  0  0  0
   -1.6901   -0.1816   -3.4708 C   0  0  0  0  0  0
   -0.2784   -0.1638   -3.5827 C   0  0  0  0  0  0
    0.5499   -0.0657   -2.4382 C   0  0  0  0  0  0
   -0.0649    0.0208   -1.1702 C   0  0  0  0  0  0
   -0.9198   -0.0284    1.8911 C   0  0  0  0  0  0
   -0.8431   -1.1913    2.6771 C   0  0  0  0  0  0
    0.1757   -1.3616    3.6387 C   0  0  0  0  0  0
    1.1417   -0.3358    3.7783 C   0  0  0  0  0  0
    1.0933    0.8425    2.9965 C   0  0  0  0  0  0
    0.0417    0.9849    2.0624 C   0  0  0  0  0  0
   -3.3573    5.6329    3.5817 C   0  0  0  0  0  0
   -4.7785   -2.6651    3.9410 H   0  0  0  0  0  0
   -8.3396   -3.1959    6.2896 H   0  0  0  0  0  0
   -7.7791    0.3734    3.9541 H   0  0  0  0  0  0
   -6.4892    2.3671    3.6750 H   0  0  0  0  0  0
   -8.4320    3.8463    0.1126 H   0  0  0  0  0  0
   -6.0268    0.2889   -0.0226 H   0  0  0  0  0  0
   -4.1908   -0.5723    5.4332 H   0  0  0  0  0  0
   -2.5067    0.4045    6.9081 H   0  0  0  0  0  0
   -1.1223    2.3012    6.1433 H   0  0  0  0  0  0
   -4.2749    5.6020    0.8376 H   0  0  0  0  0  0
   -3.6600    4.5444   -1.3226 H   0  0  0  0  0  0
   -2.8086    2.2568   -1.3734 H   0  0  0  0  0  0
   -3.3327   -0.0996   -2.0694 H   0  0  0  0  0  0
    0.1744   -0.2313   -4.5560 H   0  0  0  0  0  0
    0.5593    0.0803   -0.2948 H   0  0  0  0  0  0
   -1.5867   -1.9605    2.5404 H   0  0  0  0  0  0
    1.9403   -0.4347    4.4942 H   0  0  0  0  0  0
   -0.0576    1.8702    1.4537 H   0  0  0  0  0  0
   -2.7110    6.0180    2.7909 H   0  0  0  0  0  0
   -5.7901   -3.0236    1.1347 Cl  0  0  0  0  0  0
   -3.0552   -2.8847   -0.5881 Cl  0  0  0  0  0  0
   -2.5404    5.3299    4.8492 C   0  0  0  0  0  0
   -1.1928    4.6315    4.5811 C   0  0  0  0  0  0
   -0.6914    4.3858    5.5167 H   0  0  0  0  0  0
   -3.1453    4.7347    5.5341 H   0  0  0  0  0  0
   -2.3363    6.2660    5.3689 H   0  0  0  0  0  0
   -7.0457   -5.5581    5.2441 C   0  0  0  0  0  0
   -6.0361   -4.4809    5.6866 C   0  0  0  0  0  0
   -5.9382   -4.4677    7.2251 C   0  0  0  0  0  0
   -4.6509   -4.8832    5.1345 C   0  0  0  0  0  0
   -7.1485   -5.5743    4.1582 H   0  0  0  0  0  0
   -6.7324   -6.5538    5.5591 H   0  0  0  0  0  0
   -8.0385   -5.3889    5.6608 H   0  0  0  0  0  0
   -5.2456   -3.6977    7.5669 H   0  0  0  0  0  0
   -6.9003   -4.2723    7.6982 H   0  0  0  0  0  0
   -5.5826   -5.4238    7.6103 H   0  0  0  0  0  0
   -3.8778   -4.1766    5.4364 H   0  0  0  0  0  0
   -4.3467   -5.8630    5.5041 H   0  0  0  0  0  0
   -4.6529   -4.9432    4.0452 H   0  0  0  0  0  0
   -9.3352    0.4693    6.5196 C   0  0  0  0  0  0
   -9.5879   -0.7671    5.6377 C   0  0  0  0  0  0
  -10.4186   -1.7752    6.4618 C   0  0  0  0  0  0
  -10.4380   -0.3616    4.4150 C   0  0  0  0  0  0
   -8.7885    1.2431    5.9829 H   0  0  0  0  0  0
  -10.2690    0.9122    6.8671 H   0  0  0  0  0  0
   -8.7452    0.2096    7.3992 H   0  0  0  0  0  0
  -10.6207   -2.6849    5.8948 H   0  0  0  0  0  0
   -9.9149   -2.0561    7.3873 H   0  0  0  0  0  0
  -11.3834   -1.3542    6.7463 H   0  0  0  0  0  0
  -10.5943   -1.2109    3.7487 H   0  0  0  0  0  0
  -11.4202    0.0037    4.7159 H   0  0  0  0  0  0
   -9.9765    0.4316    3.8275 H   0  0  0  0  0  0
   -9.1176    5.2995    2.0465 C   0  0  0  0  0  0
   -8.2033    4.3596    2.8623 C   0  0  0  0  0  0
   -7.1023    5.2220    3.5042 C   0  0  0  0  0  0
   -9.0598    3.7242    3.9744 C   0  0  0  0  0  0
   -9.9443    4.7571    1.5862 H   0  0  0  0  0  0
   -9.5576    6.0713    2.6789 H   0  0  0  0  0  0
   -8.5657    5.8127    1.2581 H   0  0  0  0  0  0
   -6.4703    4.6407    4.1752 H   0  0  0  0  0  0
   -6.4562    5.6597    2.7426 H   0  0  0  0  0  0
   -7.5222    6.0395    4.0905 H   0  0  0  0  0  0
   -8.4583    3.1192    4.6512 H   0  0  0  0  0  0
   -9.5564    4.4822    4.5806 H   0  0  0  0  0  0
   -9.8324    3.0780    3.5561 H   0  0  0  0  0  0
   -6.8577    0.7972   -2.3426 C   0  0  0  0  0  0
   -7.5326    2.0083   -1.6607 C   0  0  0  0  0  0
   -6.9918    3.2828   -2.3379 C   0  0  0  0  0  0
   -9.0503    1.8981   -1.9057 C   0  0  0  0  0  0
   -7.2199   -0.1480   -1.9360 H   0  0  0  0  0  0
   -7.0619    0.7799   -3.4137 H   0  0  0  0  0  0
   -5.7740    0.8236   -2.2268 H   0  0  0  0  0  0
   -7.4726    4.1850   -1.9604 H   0  0  0  0  0  0
   -5.9202    3.3904   -2.1672 H   0  0  0  0  0  0
   -7.1521    3.2614   -3.4162 H   0  0  0  0  0  0
   -9.5938    2.7628   -1.5255 H   0  0  0  0  0  0
   -9.2785    1.8203   -2.9691 H   0  0  0  0  0  0
   -9.4623    1.0147   -1.4162 H   0  0  0  0  0  0
   -1.8512   -0.4598   -6.0240 C   0  0  0  0  0  0
   -2.6184   -0.2883   -4.6949 C   0  0  0  0  0  0
   -3.4652    0.9951   -4.8027 C   0  0  0  0  0  0
   -3.5511   -1.5068   -4.5368 C   0  0  0  0  0  0
   -1.2348   -1.3598   -6.0181 H   0  0  0  0  0  0
   -2.5357   -0.5484   -6.8682 H   0  0  0  0  0  0
   -1.2045    0.3936   -6.2310 H   0  0  0  0  0  0
   -4.0879    1.1514   -3.9228 H   0  0  0  0  0  0
   -2.8297    1.8750   -4.9094 H   0  0  0  0  0  0
   -4.1305    0.9634   -5.6660 H   0  0  0  0  0  0
   -4.2046   -1.4225   -3.6690 H   0  0  0  0  0  0
   -4.1959   -1.6320   -5.4072 H   0  0  0  0  0  0
   -2.9760   -2.4264   -4.4201 H   0  0  0  0  0  0
    2.6329    1.2410   -1.8908 C   0  0  0  0  0  0
    2.0879   -0.0559   -2.5235 C   0  0  0  0  0  0
    2.6150   -0.1268   -3.9733 C   0  0  0  0  0  0
    2.6512   -1.2704   -1.7591 C   0  0  0  0  0  0
    2.3808    1.3224   -0.8335 H   0  0  0  0  0  0
    3.7196    1.2938   -1.9621 H   0  0  0  0  0  0
    2.2274    2.1213   -2.3907 H   0  0  0  0  0  0
    2.2993   -1.0439   -4.4721 H   0  0  0  0  0  0
    2.2709    0.7201   -4.5682 H   0  0  0  0  0  0
    3.7050   -0.1118   -3.9994 H   0  0  0  0  0  0
    2.2650   -2.2044   -2.1690 H   0  0  0  0  0  0
    3.7392   -1.3104   -1.8178 H   0  0  0  0  0  0
    2.3895   -1.2486   -0.7010 H   0  0  0  0  0  0
    0.3213   -3.8736    3.5777 C   0  0  0  0  0  0
    0.1941   -2.6407    4.4944 C   0  0  0  0  0  0
   -1.1170   -2.7341    5.3006 C   0  0  0  0  0  0
    1.3662   -2.6782    5.4985 C   0  0  0  0  0  0
    1.2293   -3.8212    2.9756 H   0  0  0  0  0  0
    0.3634   -4.7978    4.1548 H   0  0  0  0  0  0
   -0.5187   -3.9660    2.8894 H   0  0  0  0  0  0
   -1.2382   -1.8666    5.9502 H   0  0  0  0  0  0
   -1.9943   -2.7796    4.6562 H   0  0  0  0  0  0
   -1.1364   -3.6228    5.9321 H   0  0  0  0  0  0
    1.3213   -1.8449    6.2009 H   0  0  0  0  0  0
    1.3516   -3.5938    6.0906 H   0  0  0  0  0  0
    2.3314   -2.6434    4.9916 H   0  0  0  0  0  0
    3.5555    1.3268    2.8554 C   0  0  0  0  0  0
    2.1727    1.9235    3.1832 C   0  0  0  0  0  0
    2.1592    2.4215    4.6418 C   0  0  0  0  0  0
    1.9646    3.1490    2.2663 C   0  0  0  0  0  0
    3.5855    0.9495    1.8323 H   0  0  0  0  0  0
    4.3456    2.0717    2.9541 H   0  0  0  0  0  0
    3.8130    0.4980    3.5146 H   0  0  0  0  0  0
    1.1797    2.8197    4.9059 H   0  0  0  0  0  0
    2.3885    1.6275    5.3518 H   0  0  0  0  0  0
    2.8908    3.2140    4.8003 H   0  0  0  0  0  0
    1.0092    3.6383    2.4586 H   0  0  0  0  0  0
    2.7416    3.8978    2.4213 H   0  0  0  0  0  0
    1.9947    2.8734    1.2115 H   0  0  0  0  0  0
   -0.5299    5.3265    4.0655 H   0  0  0  0  0  0
   -4.0917    6.4095    3.7957 H   0  0  0  0  0  0
  1 62  1  0  0  0
  1 63  1  0  0  0
  2 12  1  0  0  0
  2  6  1  0  0  0
  2 18  1  0  0  0
  3 30  1  0  0  0
  3 29  1  0  0  0
  3 36  1  0  0  0
  4 22  1  0  0  0
  4 65  1  0  0  0
  5 25  1  0  0  0
  5 42  1  0  0  0
  6 11  1  0  0  0
  6  7  2  0  0  0
  7  8  1  0  0  0
  7 43  1  0  0  0
  8  9  2  0  0  0
  8 70  1  0  0  0
  9 10  1  0  0  0
  9 44  1  0  0  0
 10 11  2  0  0  0
 10 83  1  0  0  0
 11 45  1  0  0  0
 12 13  2  0  0  0
 12 17  1  0  0  0
 13 14  1  0  0  0
 13 46  1  0  0  0
 14 15  2  0  0  0
 14 96  1  0  0  0
 15 47  1  0  0  0
 15 16  1  0  0  0
 16 17  2  0  0  0
 16109  1  0  0  0
 17 48  1  0  0  0
 18 23  1  0  0  0
 18 19  2  0  0  0
 19 20  1  0  0  0
 19 49  1  0  0  0
 20 21  2  0  0  0
 20 50  1  0  0  0
 21 22  1  0  0  0
 21 51  1  0  0  0
 22 23  2  0  0  0
 23 24  1  0  0  0
 24 29  2  0  0  0
 24 25  1  0  0  0
 25 26  2  0  0  0
 26 27  1  0  0  0
 26 52  1  0  0  0
 27 53  1  0  0  0
 27 28  2  0  0  0
 28 54  1  0  0  0
 28 29  1  0  0  0
 30 31  1  0  0  0
 30 35  2  0  0  0
 31 55  1  0  0  0
 31 32  2  0  0  0
 32 33  1  0  0  0
 32122  1  0  0  0
 33 56  1  0  0  0
 33 34  2  0  0  0
 34 35  1  0  0  0
 34135  1  0  0  0
 35 57  1  0  0  0
 36 37  2  0  0  0
 36 41  1  0  0  0
 37 58  1  0  0  0
 37 38  1  0  0  0
 38 39  2  0  0  0
 38148  1  0  0  0
 39 40  1  0  0  0
 39 59  1  0  0  0
 40 41  2  0  0  0
 40161  1  0  0  0
 41 60  1  0  0  0
 42 61  1  0  0  0
 42 64  1  0  0  0
 42174  1  0  0  0
 64 65  1  0  0  0
 64 67  1  0  0  0
 64 68  1  0  0  0
 65 66  1  0  0  0
 65173  1  0  0  0
 69 70  1  0  0  0
 69 73  1  0  0  0
 69 74  1  0  0  0
 69 75  1  0  0  0
 70 71  1  0  0  0
 70 72  1  0  0  0
 71 76  1  0  0  0
 71 77  1  0  0  0
 71 78  1  0  0  0
 72 79  1  0  0  0
 72 80  1  0  0  0
 72 81  1  0  0  0
 82 83  1  0  0  0
 82 86  1  0  0  0
 82 87  1  0  0  0
 82 88  1  0  0  0
 83 84  1  0  0  0
 83 85  1  0  0  0
 84 89  1  0  0  0
 84 90  1  0  0  0
 84 91  1  0  0  0
 85 92  1  0  0  0
 85 93  1  0  0  0
 85 94  1  0  0  0
 95 96  1  0  0  0
 95 99  1  0  0  0
 95100  1  0  0  0
 95101  1  0  0  0
 96 97  1  0  0  0
 96 98  1  0  0  0
 97102  1  0  0  0
 97103  1  0  0  0
 97104  1  0  0  0
 98105  1  0  0  0
 98106  1  0  0  0
 98107  1  0  0  0
108109  1  0  0  0
108112  1  0  0  0
108113  1  0  0  0
108114  1  0  0  0
109110  1  0  0  0
109111  1  0  0  0
110115  1  0  0  0
110116  1  0  0  0
110117  1  0  0  0
111118  1  0  0  0
111119  1  0  0  0
111120  1  0  0  0
121122  1  0  0  0
121125  1  0  0  0
121126  1  0  0  0
121127  1  0  0  0
122123  1  0  0  0
122124  1  0  0  0
123128  1  0  0  0
123129  1  0  0  0
123130  1  0  0  0
124131  1  0  0  0
124132  1  0  0  0
124133  1  0  0  0
134135  1  0  0  0
134138  1  0  0  0
134139  1  0  0  0
134140  1  0  0  0
135136  1  0  0  0
135137  1  0  0  0
136141  1  0  0  0
136142  1  0  0  0
136143  1  0  0  0
137144  1  0  0  0
137145  1  0  0  0
137146  1  0  0  0
147148  1  0  0  0
147151  1  0  0  0
147152  1  0  0  0
147153  1  0  0  0
148149  1  0  0  0
148150  1  0  0  0
149154  1  0  0  0
149155  1  0  0  0
149156  1  0  0  0
150157  1  0  0  0
150158  1  0  0  0
150159  1  0  0  0
160161  1  0  0  0
160164  1  0  0  0
160165  1  0  0  0
160166  1  0  0  0
161162  1  0  0  0
161163  1  0  0  0
162167  1  0  0  0
162168  1  0  0  0
162169  1  0  0  0
163170  1  0  0  0
163171  1  0  0  0
163172  1  0  0  0
M  END
> <s_m_entry_id>
622

> <s_m_entry_name>
R_C3_Tunephos_1_5_SPE.1

> <program>
Gaussian 09, Revision D.01

> <chiral flag>
0

> <version>
0

> <s_m_Source_Path>
/home/sigmangrp/Documents/Schrodinger/S-35tBu-C3-Tunephos

> <s_m_Source_File>
S-35tBu-C3-Tunephos_ligand1_representatives.maegz

> <i_m_Source_File_Index>
1

> <s_m_job_name>
mmod_csearch_2382

> <r_mmod_Potential_Energy-OPLS-2005>
74.3617782592773

> <b_mmod_Minimization_Converged-OPLS-2005>
1

> <r_mmod_RMS_Derivative-OPLS-2005>
0.000946560758166015

> <i_mmod_Times_Found-OPLS-2005>
4

> <r_mmod_Relative_Potential_Energy-OPLS-2005>
4.98819732666016

> <i_mmod_Conformation-OPLS-2005>
91

> <i_mmod_Serial_Number-OPLS-2005>
6

> <r_canvas_Distance_To_Centroid>
0.0842142289251556

> <b_canvas_Is_Nearest_To_Centroid>
1

> <b_canvas_Is_Farthest_From_Centroid>
0

> <r_canvas_Max_Distance_From_Centroid>
0.246111687407776

> <r_canvas_Average_Distance_From_Centroid>
0.118253924597303

> <r_canvas_Cluster_Variance>
0.015000114286551

> <i_canvas_Canvas_Cluster_Index>
1

> <i_canvas_Canvas_Cluster_Size>
43

> <s_m_subgroup_title>
S-35tBu-C3-Tunephos_ligand1_representatives

> <s_m_subgroupid>
S-35tBu-C3-Tunephos_ligand1_representatives

> <b_m_subgroup_collapsed>
0

$$$$
