catASium_T2
                    3D
 Structure written by MMmdl.
 98103  0  0  1  0            999 V2000
   17.5126    4.1438    6.6453 C   0  0  0  0  0  0
   18.5087    3.2986    6.1083 C   0  0  0  0  0  0
   19.7103    3.0594    6.8055 C   0  0  0  0  0  0
   19.9328    3.6770    8.0512 C   0  0  0  0  0  0
   18.9563    4.5335    8.5946 C   0  0  0  0  0  0
   17.7572    4.7611    7.8910 C   0  0  0  0  0  0
   16.0427    3.5828    4.0961 C   0  0  0  0  0  0
   16.0636    2.1756    4.0131 C   0  0  0  0  0  0
   16.1224    1.5296    2.7620 C   0  0  0  0  0  0
   16.1648    2.2959    1.5810 C   0  0  0  0  0  0
   16.1522    3.7029    1.6517 C   0  0  0  0  0  0
   16.1009    4.3391    2.9077 C   0  0  0  0  0  0
   14.5728    3.6058    6.6881 C   0  0  0  0  0  0
   14.6695    3.4153    8.1968 C   0  0  2  0  0  0
   13.8955    2.0904    8.3906 C   0  0  0  0  0  0
   12.6943    2.6271    7.5551 C   0  0  2  0  0  0
   13.3907    3.1283    6.2749 C   0  0  0  0  0  0
   13.7079    4.4591    8.8014 C   0  0  0  0  0  0
   12.3297    3.9005    8.3684 C   0  0  0  0  0  0
   14.6542    0.8754    7.7999 C   0  0  0  0  0  0
   13.5825    1.7057    9.8638 C   0  0  0  0  0  0
   11.4923    1.6846    7.3853 C   0  0  0  0  0  0
   12.9104    3.1281    4.8666 C   0  0  0  0  0  0
   12.6541    1.9493    4.1996 C   0  0  0  0  0  0
   12.3815    3.9755    2.7731 C   0  0  0  0  0  0
   12.7726    4.3261    4.0567 C   0  0  0  0  0  0
   12.7620    0.5202    4.6151 C   0  0  0  0  0  0
   12.1224    4.8092    1.5617 C   0  0  0  0  0  0
   11.6669    6.4037    5.8596 C   0  0  0  0  0  0
   10.4490    5.6963    5.7410 C   0  0  0  0  0  0
    9.4007    5.9144    6.6556 C   0  0  0  0  0  0
    9.5602    6.8453    7.6990 C   0  0  0  0  0  0
   10.7671    7.5589    7.8226 C   0  0  0  0  0  0
   11.8132    7.3392    6.9056 C   0  0  0  0  0  0
   12.5575    7.3074    3.2695 C   0  0  0  0  0  0
   13.5457    7.7343    2.3544 C   0  0  0  0  0  0
   13.2313    8.6271    1.3119 C   0  0  0  0  0  0
   11.9184    9.1129    1.1754 C   0  0  0  0  0  0
   10.9258    8.7069    2.0858 C   0  0  0  0  0  0
   11.2448    7.8140    3.1273 C   0  0  0  0  0  0
   15.8985    4.4724    5.7340 P   0  0  0  0  0  0
   13.0607    6.1261    4.6451 P   0  0  0  0  0  0
   12.1823    2.2616    2.5705 S   0  0  0  0  0  0
   15.2470    6.7604    5.4590 Pd  0  0  0  0  0  0
   17.3512    7.4779    6.1584 Cl  0  0  0  0  0  0
   14.6503    9.0085    5.2705 Cl  0  0  0  0  0  0
   18.3629    2.8289    5.1482 H   0  0  0  0  0  0
   20.7643    2.1497    6.2097 C   0  0  0  0  0  0
   20.8552    3.4987    8.5852 H   0  0  0  0  0  0
   19.1884    5.2109    9.9289 C   0  0  0  0  0  0
   17.0124    5.4211    8.3112 H   0  0  0  0  0  0
   16.0237    1.5933    4.9197 H   0  0  0  0  0  0
   16.1255    0.0179    2.6809 C   0  0  0  0  0  0
   16.2027    1.8021    0.6207 H   0  0  0  0  0  0
   16.1882    4.5302    0.3839 C   0  0  0  0  0  0
   16.0926    5.4171    2.9582 H   0  0  0  0  0  0
   10.4631    7.5248    3.8122 H   0  0  0  0  0  0
   11.6744    9.8012    0.3790 H   0  0  0  0  0  0
    9.9178    9.0838    1.9897 H   0  0  0  0  0  0
   14.5584    7.3726    2.4488 H   0  0  0  0  0  0
   13.9986    8.9437    0.6203 H   0  0  0  0  0  0
   12.7301    7.8998    7.0087 H   0  0  0  0  0  0
    8.7568    7.0140    8.4015 H   0  0  0  0  0  0
   10.8899    8.2784    8.6193 H   0  0  0  0  0  0
   10.3137    4.9802    4.9429 H   0  0  0  0  0  0
    8.4751    5.3660    6.5561 H   0  0  0  0  0  0
   13.1710   -0.0824    3.8041 H   0  0  0  0  0  0
   13.4203    0.3905    5.4656 H   0  0  0  0  0  0
   11.7819    0.1136    4.8618 H   0  0  0  0  0  0
   11.8574    4.1871    0.7066 H   0  0  0  0  0  0
   11.2905    5.4932    1.7185 H   0  0  0  0  0  0
   13.0097    5.3690    1.2734 H   0  0  0  0  0  0
   10.7853    2.0719    6.6514 H   0  0  0  0  0  0
   11.7952    0.6861    7.0832 H   0  0  0  0  0  0
   10.9554    1.5675    8.3264 H   0  0  0  0  0  0
   14.0220   -0.0119    7.7746 H   0  0  0  0  0  0
   15.0347    1.0381    6.7962 H   0  0  0  0  0  0
   15.5251    0.6326    8.4095 H   0  0  0  0  0  0
   12.9622    0.8100    9.9021 H   0  0  0  0  0  0
   14.5017    1.4836   10.4065 H   0  0  0  0  0  0
   13.0638    2.4636   10.4456 H   0  0  0  0  0  0
   15.6731    3.4069    8.6149 H   0  0  0  0  0  0
   13.8865    5.4606    8.4083 H   0  0  0  0  0  0
   13.7981    4.5161    9.8863 H   0  0  0  0  0  0
   11.7045    3.6769    9.2326 H   0  0  0  0  0  0
   11.7685    4.6117    7.7749 H   0  0  0  0  0  0
   21.3255    1.6390    6.9927 H   0  0  0  0  0  0
   20.3093    1.3908    5.5725 H   0  0  0  0  0  0
   21.4633    2.7302    5.6074 H   0  0  0  0  0  0
   18.8561    6.2488    9.8936 H   0  0  0  0  0  0
   18.6327    4.6969   10.7134 H   0  0  0  0  0  0
   20.2454    5.2056   10.1963 H   0  0  0  0  0  0
   17.2161    4.7962    0.1370 H   0  0  0  0  0  0
   15.7646    3.9768   -0.4547 H   0  0  0  0  0  0
   15.6124    5.4485    0.5034 H   0  0  0  0  0  0
   15.9960   -0.4339    3.6647 H   0  0  0  0  0  0
   15.3125   -0.3263    2.0411 H   0  0  0  0  0  0
   17.0682   -0.3361    2.2631 H   0  0  0  0  0  0
  1 41  1  0  0  0
  1  2  1  0  0  0
  1  6  2  0  0  0
  2  3  2  0  0  0
  2 47  1  0  0  0
  3  4  1  0  0  0
  3 48  1  0  0  0
  4  5  2  0  0  0
  4 49  1  0  0  0
  5  6  1  0  0  0
  5 50  1  0  0  0
  6 51  1  0  0  0
  7 12  1  0  0  0
  7  8  2  0  0  0
  7 41  1  0  0  0
  8  9  1  0  0  0
  8 52  1  0  0  0
  9 10  2  0  0  0
  9 53  1  0  0  0
 10 11  1  0  0  0
 10 54  1  0  0  0
 11 12  2  0  0  0
 11 55  1  0  0  0
 12 56  1  0  0  0
 13 41  1  0  0  0
 13 17  2  0  0  0
 13 14  1  0  0  0
 14 15  1  0  0  0
 14 18  1  0  0  0
 14 82  1  0  0  0
 15 16  1  0  0  0
 15 20  1  0  0  0
 15 21  1  0  0  0
 16 17  1  0  0  0
 16 22  1  0  0  0
 16 19  1  0  0  0
 17 23  1  0  0  0
 18 19  1  0  0  0
 18 83  1  0  0  0
 18 84  1  0  0  0
 19 85  1  0  0  0
 19 86  1  0  0  0
 20 76  1  0  0  0
 20 77  1  0  0  0
 20 78  1  0  0  0
 21 79  1  0  0  0
 21 80  1  0  0  0
 21 81  1  0  0  0
 22 73  1  0  0  0
 22 74  1  0  0  0
 22 75  1  0  0  0
 23 24  2  0  0  0
 23 26  1  0  0  0
 24 43  1  0  0  0
 24 27  1  0  0  0
 25 28  1  0  0  0
 25 43  1  0  0  0
 25 26  2  0  0  0
 26 42  1  0  0  0
 27 67  1  0  0  0
 27 68  1  0  0  0
 27 69  1  0  0  0
 28 70  1  0  0  0
 28 71  1  0  0  0
 28 72  1  0  0  0
 29 42  1  0  0  0
 29 34  2  0  0  0
 29 30  1  0  0  0
 30 31  2  0  0  0
 30 65  1  0  0  0
 31 32  1  0  0  0
 31 66  1  0  0  0
 32 33  2  0  0  0
 32 63  1  0  0  0
 33 34  1  0  0  0
 33 64  1  0  0  0
 34 62  1  0  0  0
 35 36  1  0  0  0
 35 40  2  0  0  0
 35 42  1  0  0  0
 36 37  2  0  0  0
 36 60  1  0  0  0
 37 38  1  0  0  0
 37 61  1  0  0  0
 38 39  2  0  0  0
 38 58  1  0  0  0
 39 40  1  0  0  0
 39 59  1  0  0  0
 40 57  1  0  0  0
 44 46  1  0  0  0
 44 45  1  0  0  0
 48 87  1  0  0  0
 48 88  1  0  0  0
 48 89  1  0  0  0
 50 90  1  0  0  0
 50 91  1  0  0  0
 50 92  1  0  0  0
 53 96  1  0  0  0
 53 97  1  0  0  0
 53 98  1  0  0  0
 55 93  1  0  0  0
 55 94  1  0  0  0
 55 95  1  0  0  0
M  END
> <s_m_entry_id>
608

> <s_m_entry_name>
ja7b00737_si_002.1

> <s_m_Source_Path>
/home/sigmangrp/Dropbox/Current Group People/Jordan_D/OPT_10_26_21

> <s_m_Source_File>
ja7b00737_si_002.cif

> <i_m_Source_File_Index>
1

> <s_m_job_name>
mmod_csearch_2382

> <r_mmod_Potential_Energy-OPLS-2005>
368.875122070312

> <b_mmod_Minimization_Converged-OPLS-2005>
1

> <r_mmod_RMS_Derivative-OPLS-2005>
0.000865476788021624

> <i_mmod_Times_Found-OPLS-2005>
362

> <r_mmod_Relative_Potential_Energy-OPLS-2005>
0

> <i_mmod_Conformation-OPLS-2005>
1

> <i_mmod_Serial_Number-OPLS-2005>
11

> <r_pdb_PDB_CRYST1_a>
22.12

> <r_pdb_PDB_CRYST1_b>
22.881

> <r_pdb_PDB_CRYST1_c>
9.752

> <r_pdb_PDB_CRYST1_alpha>
90

> <r_pdb_PDB_CRYST1_beta>
90

> <r_pdb_PDB_CRYST1_gamma>
90

> <s_pdb_PDB_CRYST1_Space_Group>
P 21 21 2

> <i_pdb_PDB_CRYST1_z>
1

> <s_pdb_PDB_format_version>
3.0

> <s_m_subgroup_title>
mmod_csearch_2382-out1

> <s_m_subgroupid>
mmod_csearch_2382-out1

> <b_m_subgroup_collapsed>
0

$$$$
