catASium_T2
                    3D
 Structure written by MMmdl.
 98103  0  0  1  0            999 V2000
   17.5542    4.1015    6.5528 C   0  0  0  0  0  0
   17.7545    3.0219    7.4392 C   0  0  0  0  0  0
   19.0416    2.6944    7.9101 C   0  0  0  0  0  0
   20.1548    3.4394    7.4765 C   0  0  0  0  0  0
   19.9780    4.4984    6.5653 C   0  0  0  0  0  0
   18.6853    4.8134    6.1008 C   0  0  0  0  0  0
   16.0012    3.6136    4.2670 C   0  0  0  0  0  0
   15.9976    4.3270    3.0513 C   0  0  0  0  0  0
   16.0688    3.6468    1.8192 C   0  0  0  0  0  0
   16.1675    2.2416    1.8020 C   0  0  0  0  0  0
   16.1949    1.5203    3.0118 C   0  0  0  0  0  0
   16.1186    2.2094    4.2387 C   0  0  0  0  0  0
   14.5169    3.6991    6.8501 C   0  0  0  0  0  0
   14.5424    3.6498    8.3701 C   0  0  2  0  0  0
   13.7817    2.3247    8.6305 C   0  0  0  0  0  0
   12.6072    2.7739    7.7062 C   0  0  2  0  0  0
   13.3502    3.1983    6.4255 C   0  0  0  0  0  0
   13.5284    4.7178    8.8364 C   0  0  0  0  0  0
   12.1803    4.0936    8.4008 C   0  0  0  0  0  0
   14.5613    1.0704    8.1554 C   0  0  0  0  0  0
   13.4151    2.0499   10.1152 C   0  0  0  0  0  0
   11.4334    1.7946    7.5484 C   0  0  0  0  0  0
   12.9129    3.1379    5.0062 C   0  0  0  0  0  0
   12.6882    1.9308    4.3819 C   0  0  0  0  0  0
   12.4136    3.8989    2.8736 C   0  0  0  0  0  0
   12.7859    4.3033    4.1464 C   0  0  0  0  0  0
   12.8126    0.5236    4.8627 C   0  0  0  0  0  0
   12.1536    4.6883    1.6332 C   0  0  0  0  0  0
   11.5632    6.4432    5.7495 C   0  0  0  0  0  0
   10.3597    5.7273    5.5555 C   0  0  0  0  0  0
    9.2425    5.9620    6.3799 C   0  0  0  0  0  0
    9.3164    6.9191    7.4087 C   0  0  0  0  0  0
   10.5076    7.6412    7.6082 C   0  0  0  0  0  0
   11.6229    7.4039    6.7817 C   0  0  0  0  0  0
   12.6649    7.2661    3.2064 C   0  0  0  0  0  0
   13.7182    7.6450    2.3447 C   0  0  0  0  0  0
   13.4879    8.4997    1.2497 C   0  0  0  0  0  0
   12.1950    8.9971    1.0068 C   0  0  0  0  0  0
   11.1382    8.6417    1.8644 C   0  0  0  0  0  0
   11.3733    7.7867    2.9585 C   0  0  0  0  0  0
   15.8489    4.5278    5.8858 P   0  0  0  0  0  0
   13.0533    6.1339    4.6586 P   0  0  0  0  0  0
   12.2434    2.1744    2.7328 S   0  0  0  0  0  0
   15.1591    6.8081    5.6457 Pd  0  0  0  0  0  0
   17.1133    7.5648    6.6632 Cl  0  0  0  0  0  0
   14.5277    9.0426    5.4132 Cl  0  0  0  0  0  0
   16.9166    2.4220    7.7506 H   0  0  0  0  0  0
   19.2273    1.5355    8.8671 C   0  0  0  0  0  0
   21.1444    3.1896    7.8312 H   0  0  0  0  0  0
   21.1710    5.2919    6.0751 C   0  0  0  0  0  0
   18.5609    5.6103    5.3830 H   0  0  0  0  0  0
   15.9263    5.4025    3.0645 H   0  0  0  0  0  0
   16.0334    4.4191    0.5172 C   0  0  0  0  0  0
   16.2210    1.7153    0.8598 H   0  0  0  0  0  0
   16.2979    0.0102    2.9897 C   0  0  0  0  0  0
   16.1348    1.6623    5.1692 H   0  0  0  0  0  0
   10.5436    7.5366    3.6011 H   0  0  0  0  0  0
   12.0152    9.6564    0.1698 H   0  0  0  0  0  0
   10.1451    9.0288    1.6874 H   0  0  0  0  0  0
   14.7173    7.2786    2.5211 H   0  0  0  0  0  0
   14.3043    8.7792    0.5995 H   0  0  0  0  0  0
   12.5272    7.9685    6.9486 H   0  0  0  0  0  0
    8.4602    7.1008    8.0422 H   0  0  0  0  0  0
   10.5666    8.3795    8.3949 H   0  0  0  0  0  0
   10.2867    4.9908    4.7681 H   0  0  0  0  0  0
    8.3294    5.4063    6.2221 H   0  0  0  0  0  0
   13.2577   -0.1042    4.0907 H   0  0  0  0  0  0
   13.4485    0.4463    5.7376 H   0  0  0  0  0  0
   11.8341    0.1075    5.1002 H   0  0  0  0  0  0
   11.3112    5.3650    1.7635 H   0  0  0  0  0  0
   13.0340    5.2534    1.3343 H   0  0  0  0  0  0
   11.9047    4.0347    0.7970 H   0  0  0  0  0  0
   10.7416    2.1281    6.7744 H   0  0  0  0  0  0
   11.7679    0.7904    7.3033 H   0  0  0  0  0  0
   10.8695    1.7118    8.4774 H   0  0  0  0  0  0
   13.9269    0.1844    8.1714 H   0  0  0  0  0  0
   14.9738    1.1557    7.1527 H   0  0  0  0  0  0
   15.4063    0.8681    8.8138 H   0  0  0  0  0  0
   12.7938    1.1579   10.1982 H   0  0  0  0  0  0
   14.3136    1.8723   10.7065 H   0  0  0  0  0  0
   12.8758    2.8488   10.6183 H   0  0  0  0  0  0
   15.5245    3.7415    8.8315 H   0  0  0  0  0  0
   13.7035    5.6850    8.3640 H   0  0  0  0  0  0
   13.5692    4.8741    9.9146 H   0  0  0  0  0  0
   11.5295    3.9193    9.2575 H   0  0  0  0  0  0
   11.6221    4.7378    7.7317 H   0  0  0  0  0  0
   20.0685    1.7159    9.5369 H   0  0  0  0  0  0
   18.3365    1.3883    9.4785 H   0  0  0  0  0  0
   19.4197    0.6174    8.3117 H   0  0  0  0  0  0
   21.5020    4.9137    5.1078 H   0  0  0  0  0  0
   20.9123    6.3453    5.9637 H   0  0  0  0  0  0
   22.0038    5.2229    6.7754 H   0  0  0  0  0  0
   16.0613   -0.4165    3.9646 H   0  0  0  0  0  0
   15.6026   -0.4075    2.2612 H   0  0  0  0  0  0
   17.3089   -0.2939    2.7179 H   0  0  0  0  0  0
   15.4124    3.9029   -0.2156 H   0  0  0  0  0  0
   15.6211    5.4181    0.6606 H   0  0  0  0  0  0
   17.0398    4.5162    0.1096 H   0  0  0  0  0  0
  1 41  1  0  0  0
  1  2  1  0  0  0
  1  6  2  0  0  0
  2  3  2  0  0  0
  2 47  1  0  0  0
  3  4  1  0  0  0
  3 48  1  0  0  0
  4  5  2  0  0  0
  4 49  1  0  0  0
  5  6  1  0  0  0
  5 50  1  0  0  0
  6 51  1  0  0  0
  7 12  1  0  0  0
  7  8  2  0  0  0
  7 41  1  0  0  0
  8  9  1  0  0  0
  8 52  1  0  0  0
  9 10  2  0  0  0
  9 53  1  0  0  0
 10 11  1  0  0  0
 10 54  1  0  0  0
 11 12  2  0  0  0
 11 55  1  0  0  0
 12 56  1  0  0  0
 13 41  1  0  0  0
 13 17  2  0  0  0
 13 14  1  0  0  0
 14 15  1  0  0  0
 14 18  1  0  0  0
 14 82  1  0  0  0
 15 16  1  0  0  0
 15 20  1  0  0  0
 15 21  1  0  0  0
 16 17  1  0  0  0
 16 22  1  0  0  0
 16 19  1  0  0  0
 17 23  1  0  0  0
 18 19  1  0  0  0
 18 83  1  0  0  0
 18 84  1  0  0  0
 19 85  1  0  0  0
 19 86  1  0  0  0
 20 76  1  0  0  0
 20 77  1  0  0  0
 20 78  1  0  0  0
 21 79  1  0  0  0
 21 80  1  0  0  0
 21 81  1  0  0  0
 22 73  1  0  0  0
 22 74  1  0  0  0
 22 75  1  0  0  0
 23 24  2  0  0  0
 23 26  1  0  0  0
 24 43  1  0  0  0
 24 27  1  0  0  0
 25 28  1  0  0  0
 25 43  1  0  0  0
 25 26  2  0  0  0
 26 42  1  0  0  0
 27 67  1  0  0  0
 27 68  1  0  0  0
 27 69  1  0  0  0
 28 70  1  0  0  0
 28 71  1  0  0  0
 28 72  1  0  0  0
 29 42  1  0  0  0
 29 34  2  0  0  0
 29 30  1  0  0  0
 30 31  2  0  0  0
 30 65  1  0  0  0
 31 32  1  0  0  0
 31 66  1  0  0  0
 32 33  2  0  0  0
 32 63  1  0  0  0
 33 34  1  0  0  0
 33 64  1  0  0  0
 34 62  1  0  0  0
 35 36  1  0  0  0
 35 40  2  0  0  0
 35 42  1  0  0  0
 36 37  2  0  0  0
 36 60  1  0  0  0
 37 38  1  0  0  0
 37 61  1  0  0  0
 38 39  2  0  0  0
 38 58  1  0  0  0
 39 40  1  0  0  0
 39 59  1  0  0  0
 40 57  1  0  0  0
 44 46  1  0  0  0
 44 45  1  0  0  0
 48 87  1  0  0  0
 48 88  1  0  0  0
 48 89  1  0  0  0
 50 90  1  0  0  0
 50 91  1  0  0  0
 50 92  1  0  0  0
 53 96  1  0  0  0
 53 97  1  0  0  0
 53 98  1  0  0  0
 55 93  1  0  0  0
 55 94  1  0  0  0
 55 95  1  0  0  0
M  END
> <s_m_entry_id>
609

> <s_m_entry_name>
ja7b00737_si_002.1

> <s_m_Source_Path>
/home/sigmangrp/Dropbox/Current Group People/Jordan_D/OPT_10_26_21

> <s_m_Source_File>
ja7b00737_si_002.cif

> <i_m_Source_File_Index>
1

> <s_m_job_name>
mmod_csearch_2382

> <r_mmod_Potential_Energy-OPLS-2005>
375.571014404297

> <b_mmod_Minimization_Converged-OPLS-2005>
1

> <r_mmod_RMS_Derivative-OPLS-2005>
0.000924053194466978

> <i_mmod_Times_Found-OPLS-2005>
327

> <r_mmod_Relative_Potential_Energy-OPLS-2005>
6.69589233398438

> <i_mmod_Conformation-OPLS-2005>
2

> <i_mmod_Serial_Number-OPLS-2005>
11

> <r_pdb_PDB_CRYST1_a>
22.12

> <r_pdb_PDB_CRYST1_b>
22.881

> <r_pdb_PDB_CRYST1_c>
9.752

> <r_pdb_PDB_CRYST1_alpha>
90

> <r_pdb_PDB_CRYST1_beta>
90

> <r_pdb_PDB_CRYST1_gamma>
90

> <s_pdb_PDB_CRYST1_Space_Group>
P 21 21 2

> <i_pdb_PDB_CRYST1_z>
1

> <s_pdb_PDB_format_version>
3.0

> <s_m_subgroup_title>
mmod_csearch_2382-out1

> <s_m_subgroupid>
mmod_csearch_2382-out1

> <b_m_subgroup_collapsed>
0

$$$$
