W001_1_6_F
                    3D
 Structure written by MMmdl.
 96 99  0  0  1  0            999 V2000
   -0.6730   -3.8872    4.8420 C   0  0  3  0  0  0
   -0.4952   -3.0580    5.9950 C   0  0  3  0  0  0
    0.8755   -3.1454    6.3976 C   0  0  3  0  0  0
    1.5435   -4.0324    5.4958 C   0  0  3  0  0  0
    0.5872   -4.4891    4.5311 C   0  5  3  0  0  0
   -1.2525   -2.4379    6.4542 H   0  0  0  0  0  0
    1.3330   -2.6050    7.2145 H   0  0  0  0  0  0
    2.5938   -4.2868    5.5262 H   0  0  0  0  0  0
    0.7841   -5.1550    3.7029 H   0  0  0  0  0  0
   -1.5930   -4.0096    4.2885 H   0  0  0  0  0  0
    0.7337   -2.4233    4.4709 Fe  0  2  0  0  0  0
    0.6292   -0.3810    4.4941 C   0  5  1  0  0  0
    1.9822   -0.8082    4.2946 C   0  0  2  0  0  0
    2.0537   -1.5957    3.0947 C   0  0  2  0  0  0
    0.7206   -1.6296    2.5742 C   0  0  2  0  0  0
   -0.1674   -0.9088    3.4304 C   0  0  1  0  0  0
    0.2650    0.1997    5.3305 H   0  0  0  0  0  0
   -1.2355   -0.7835    3.3174 H   0  0  0  0  0  0
    0.3217   -2.2281    1.2398 C   0  0  2  0  0  0
    0.7611   -0.8011    0.1405 P   0  0  0  0  0  0
    0.9237   -3.1125    1.0370 H   0  0  0  0  0  0
   -1.1658   -2.6130    1.2033 C   0  0  0  0  0  0
   -1.4157   -3.1645    0.2994 H   0  0  0  0  0  0
   -1.4269   -3.2683    2.0328 H   0  0  0  0  0  0
   -1.8167   -1.7388    1.2504 H   0  0  0  0  0  0
   -2.6754   -0.0511   -3.0141 C   0  0  0  0  0  0
   -2.1276    1.0367   -2.3058 C   0  0  0  0  0  0
   -1.1114    0.8035   -1.3542 C   0  0  0  0  0  0
   -0.6358   -0.4990   -1.0906 C   0  0  0  0  0  0
   -1.1658   -1.5643   -1.8508 C   0  0  0  0  0  0
   -2.1916   -1.3559   -2.7954 C   0  0  0  0  0  0
   -3.4567    0.1220   -3.7396 H   0  0  0  0  0  0
   -2.6315    2.4500   -2.5597 C   0  0  0  0  0  0
   -0.6882    1.6519   -0.8397 H   0  0  0  0  0  0
   -0.7770   -2.5641   -1.7267 H   0  0  0  0  0  0
   -2.7438   -2.5385   -3.5760 C   0  0  0  0  0  0
    3.7747   -2.3062   -3.1701 C   0  0  0  0  0  0
    3.7149   -2.9867   -1.9393 C   0  0  0  0  0  0
    2.8320   -2.5320   -0.9357 C   0  0  0  0  0  0
    2.0067   -1.4040   -1.1407 C   0  0  0  0  0  0
    2.1035   -0.7269   -2.3780 C   0  0  0  0  0  0
    2.9725   -1.1720   -3.3964 C   0  0  0  0  0  0
    4.4441   -2.6519   -3.9441 H   0  0  0  0  0  0
    4.6076   -4.1955   -1.7017 C   0  0  0  0  0  0
    2.8110   -3.0664   -0.0008 H   0  0  0  0  0  0
    1.4966    0.1467   -2.5650 H   0  0  0  0  0  0
    3.0316   -0.4570   -4.7382 C   0  0  0  0  0  0
    2.2734   -1.1197   -5.6096 F   0  0  0  0  0  0
    2.5814    0.7947   -4.6460 F   0  0  0  0  0  0
    4.2837   -0.4271   -5.1955 F   0  0  0  0  0  0
    5.8283   -3.7782   -1.3704 F   0  0  0  0  0  0
    4.1307   -4.9663   -0.7233 F   0  0  0  0  0  0
    4.6908   -4.9296   -2.8109 F   0  0  0  0  0  0
   -1.6532    3.3377   -2.3798 F   0  0  0  0  0  0
   -3.0861    2.5722   -3.8069 F   0  0  0  0  0  0
   -3.6225    2.7188   -1.7118 F   0  0  0  0  0  0
   -3.8994   -2.2385   -4.1685 F   0  0  0  0  0  0
   -1.8603   -2.8979   -4.5054 F   0  0  0  0  0  0
   -2.9434   -3.5674   -2.7518 F   0  0  0  0  0  0
    3.7620    0.4915    1.3848 P   0  0  0  0  0  0
    6.6986    2.8598    4.2245 C   0  0  0  0  0  0
    6.3697    3.3830    2.9610 C   0  0  0  0  0  0
    5.4951    2.6782    2.1113 C   0  0  0  0  0  0
    4.9359    1.4426    2.5081 C   0  0  0  0  0  0
    5.2753    0.9315    3.7806 C   0  0  0  0  0  0
    6.1500    1.6313    4.6342 C   0  0  0  0  0  0
    7.3683    3.4004    4.8776 H   0  0  0  0  0  0
    6.7860    4.3276    2.6422 H   0  0  0  0  0  0
    5.2567    3.1037    1.1494 H   0  0  0  0  0  0
    4.8670   -0.0107    4.1107 H   0  0  0  0  0  0
    6.3993    1.2253    5.6037 H   0  0  0  0  0  0
    1.9897    2.8817    2.8874 Cl  0  0  0  0  0  0
   -0.8108    1.7200    1.7667 Cl  0  0  0  0  0  0
    2.8089   -0.5836    4.9533 H   0  0  0  0  0  0
    5.8385   -3.1230    1.7930 C   0  0  0  0  0  0
    4.8853   -3.9900    2.3476 C   0  0  0  0  0  0
    3.6273   -3.4904    2.7251 C   0  0  0  0  0  0
    3.2950   -2.1327    2.5229 C   0  0  0  0  0  0
    4.2102   -1.2861    1.8446 C   0  0  0  0  0  0
    5.5016   -1.7793    1.5581 C   0  0  0  0  0  0
    6.8248   -3.4873    1.5416 H   0  0  0  0  0  0
    5.1339   -5.0282    2.5169 H   0  0  0  0  0  0
    2.9409   -4.1745    3.1942 H   0  0  0  0  0  0
    6.2568   -1.1165    1.1641 H   0  0  0  0  0  0
    5.1735    1.8373   -2.9167 C   0  0  0  0  0  0
    5.6891    0.6409   -2.3882 C   0  0  0  0  0  0
    5.2841    0.1974   -1.1142 C   0  0  0  0  0  0
    4.3762    0.9534   -0.3367 C   0  0  0  0  0  0
    3.8573    2.1448   -0.8912 C   0  0  0  0  0  0
    4.2498    2.5873   -2.1685 C   0  0  0  0  0  0
    5.4774    2.1728   -3.8983 H   0  0  0  0  0  0
    6.3879    0.0551   -2.9684 H   0  0  0  0  0  0
    5.6770   -0.7420   -0.7710 H   0  0  0  0  0  0
    3.1583    2.7417   -0.3224 H   0  0  0  0  0  0
    3.8468    3.5050   -2.5728 H   0  0  0  0  0  0
    1.4221    1.0519    1.5553 Pd  0  0  0  0  0  0
  1 10  1  0  0  0
  1  5  1  0  0  0
  1  2  2  0  0  0
  2  3  1  0  0  0
  2  6  1  0  0  0
  3  4  2  0  0  0
  3  7  1  0  0  0
  4  8  1  0  0  0
  4  5  1  0  0  0
  5  9  1  0  0  0
 12 17  1  0  0  0
 12 16  1  0  0  0
 12 13  1  0  0  0
 13 14  2  0  0  0
 13 74  1  0  0  0
 14 78  1  0  0  0
 14 15  1  0  0  0
 15 19  1  0  0  0
 15 16  2  0  0  0
 16 18  1  0  0  0
 19 21  1  0  0  0
 19 22  1  0  0  0
 19 20  1  0  0  0
 20 40  1  0  0  0
 20 29  1  0  0  0
 22 23  1  0  0  0
 22 24  1  0  0  0
 22 25  1  0  0  0
 26 31  1  0  0  0
 26 27  2  0  0  0
 26 32  1  0  0  0
 27 28  1  0  0  0
 27 33  1  0  0  0
 28 29  2  0  0  0
 28 34  1  0  0  0
 29 30  1  0  0  0
 30 35  1  0  0  0
 30 31  2  0  0  0
 31 36  1  0  0  0
 33 56  1  0  0  0
 33 54  1  0  0  0
 33 55  1  0  0  0
 36 58  1  0  0  0
 36 57  1  0  0  0
 36 59  1  0  0  0
 37 43  1  0  0  0
 37 38  1  0  0  0
 37 42  2  0  0  0
 38 44  1  0  0  0
 38 39  2  0  0  0
 39 45  1  0  0  0
 39 40  1  0  0  0
 40 41  2  0  0  0
 41 42  1  0  0  0
 41 46  1  0  0  0
 42 47  1  0  0  0
 44 51  1  0  0  0
 44 53  1  0  0  0
 44 52  1  0  0  0
 47 50  1  0  0  0
 47 48  1  0  0  0
 47 49  1  0  0  0
 60 79  1  0  0  0
 60 64  1  0  0  0
 60 88  1  0  0  0
 61 66  1  0  0  0
 61 62  2  0  0  0
 61 67  1  0  0  0
 62 63  1  0  0  0
 62 68  1  0  0  0
 63 64  2  0  0  0
 63 69  1  0  0  0
 64 65  1  0  0  0
 65 70  1  0  0  0
 65 66  2  0  0  0
 66 71  1  0  0  0
 72 96  1  0  0  0
 73 96  1  0  0  0
 75 81  1  0  0  0
 75 76  1  0  0  0
 75 80  2  0  0  0
 76 82  1  0  0  0
 76 77  2  0  0  0
 77 83  1  0  0  0
 77 78  1  0  0  0
 78 79  2  0  0  0
 79 80  1  0  0  0
 80 84  1  0  0  0
 85 90  1  0  0  0
 85 86  2  0  0  0
 85 91  1  0  0  0
 86 87  1  0  0  0
 86 92  1  0  0  0
 87 88  2  0  0  0
 87 93  1  0  0  0
 88 89  1  0  0  0
 89 94  1  0  0  0
 89 90  2  0  0  0
 90 95  1  0  0  0
M  CHG  3   5  -1  11   2  12  -1
M  END
> <s_m_entry_id>
84

> <s_m_entry_name>
W001_1_6_F.1

> <program>
Gaussian 09, Revision D.01

> <chiral flag>
1

> <version>
0

> <s_m_Source_Path>
/home/sigmangrp/Dropbox/Current Group People/Lucy_v_D/Macromodel/Sam_DFT/Next

> <s_m_Source_File>
W001_1_6_F.log

> <i_m_Source_File_Index>
1

> <r_mmod_Potential_Energy-OPLS-2005>
486.996459960938

> <b_mmod_Minimization_Converged-OPLS-2005>
1

> <r_mmod_RMS_Derivative-OPLS-2005>
0.000994992558844388

> <i_mmod_Times_Found-OPLS-2005>
242

> <r_mmod_Relative_Potential_Energy-OPLS-2005>
9.73416137695312

> <i_mmod_Conformation-OPLS-2005>
3

> <i_mmod_Serial_Number-OPLS-2005>
4

> <s_m_job_name>
mmod_csearch_2489

> <s_m_subgroup_title>
mmod_csearch_2489-out1

> <s_m_subgroupid>
mmod_csearch_2489-out1

> <b_m_subgroup_collapsed>
0

$$$$
